/*--------------------------------*- C++ -*----------------------------------*\
  =========                 |
  \\      /  F ield         | OpenFOAM: The Open Source CFD Toolbox
   \\    /   O peration     | Website:  https://openfoam.org
    \\  /    A nd           | Version:  12
     \\/     M anipulation  |
\*---------------------------------------------------------------------------*/
FoamFile
{
    format      ascii;
    class       featureEdgeMesh;
    location    "constant/triSurface";
    object      blade4.eMesh;
}
// * * * * * * * * * * * * * * * * * * * * * * * * * * * * * * * * * * * * * //


// points:

348
(
(-1.16204 3.51948 0.480917)
(-1.16601 3.47234 0.491927)
(-1.1754 3.47061 0.510171)
(-1.33233 5.33362 0.555624)
(-1.32477 5.37994 0.568109)
(-1.31373 5.38035 0.585481)
(-1.26049 4.49382 0.555229)
(-1.27007 4.49575 0.555464)
(-1.26999 4.49956 0.549937)
(-1.26014 4.49812 0.549405)
(-1.2508 4.49277 0.554416)
(-1.25032 4.49652 0.548868)
(-1.27061 4.49624 0.544139)
(-1.26106 4.49433 0.543295)
(-1.25134 4.49326 0.543091)
(-1.24203 4.49076 0.553561)
(-1.24106 4.49375 0.548307)
(-1.27959 4.49695 0.544948)
(-1.27965 4.49971 0.550405)
(-1.34071 4.43515 0.556544)
(-1.34266 4.42559 0.555922)
(-1.34649 4.42618 0.550444)
(-1.34503 4.43603 0.550797)
(-1.33964 4.44487 0.556604)
(-1.34341 4.44586 0.551141)
(-1.3432 4.42607 0.544596)
(-1.34127 4.43566 0.54461)
(-1.34018 4.44536 0.545279)
(-1.33761 4.45368 0.556534)
(-1.34062 4.45512 0.551404)
(-1.34392 4.41706 0.544595)
(-1.34666 4.41651 0.550038)
(-1.16921 3.67727 0.487971)
(-1.16399 3.58159 0.481781)
(-1.17158 3.6829 0.486687)
(-1.1667 3.59375 0.481464)
(-1.22726 4.47916 0.553015)
(-1.2346 4.48563 0.553337)
(-1.23278 4.48878 0.547699)
(-1.22498 4.48261 0.547062)
(-1.21942 4.4734 0.552088)
(-1.21728 4.47631 0.546424)
(-1.23514 4.48611 0.542011)
(-1.22783 4.47968 0.541081)
(-1.21996 4.47389 0.540762)
(-1.21284 4.46727 0.55116)
(-1.21066 4.46928 0.545807)
(-1.24254 4.49122 0.542934)
(-1.20199 4.41371 0.549002)
(-1.20007 4.4233 0.549016)
(-1.19678 4.42319 0.543168)
(-1.19823 4.41334 0.542815)
(-1.20309 4.40401 0.548333)
(-1.19986 4.40351 0.542471)
(-1.20061 4.42378 0.53769)
(-1.20256 4.41422 0.537068)
(-1.20363 4.4045 0.537008)
(-1.20515 4.39523 0.547705)
(-1.20265 4.39425 0.542208)
(-1.19985 4.43276 0.53839)
(-1.1966 4.43286 0.543574)
(-1.32598 4.46841 0.557267)
(-1.33246 4.46109 0.556957)
(-1.33564 4.46342 0.551522)
(-1.32945 4.47123 0.551562)
(-1.32021 4.4763 0.557024)
(-1.32314 4.47894 0.551591)
(-1.333 4.46157 0.545631)
(-1.32655 4.46892 0.545333)
(-1.32075 4.47679 0.545698)
(-1.31406 4.48292 0.556663)
(-1.31609 4.48557 0.551539)
(-1.33812 4.45413 0.545907)
(-1.31638 4.36747 0.552755)
(-1.3114 4.35575 0.552243)
(-1.31421 4.35372 0.545797)
(-1.31937 4.36472 0.546514)
(-1.32343 4.3752 0.552878)
(-1.32612 4.3728 0.547183)
(-1.31202 4.3563 0.53931)
(-1.31698 4.368 0.540275)
(-1.32397 4.37569 0.541484)
(-1.32991 4.38164 0.553079)
(-1.3326 4.38009 0.547805)
(-1.30964 4.34092 0.538541)
(-1.31143 4.33948 0.545053)
(-1.20585 4.44984 0.550735)
(-1.20898 4.45911 0.550976)
(-1.20598 4.46083 0.545221)
(-1.20232 4.45158 0.54465)
(-1.20195 4.44091 0.549861)
(-1.19881 4.44226 0.544083)
(-1.20952 4.45959 0.539651)
(-1.20642 4.45035 0.538801)
(-1.20249 4.4414 0.538535)
(-1.19934 4.4323 0.549017)
(-1.21335 4.46773 0.540533)
(-1.21581 4.37829 0.548418)
(-1.21015 4.38752 0.547998)
(-1.20751 4.38571 0.542074)
(-1.21286 4.37619 0.541921)
(-1.21942 4.36534 0.548262)
(-1.21686 4.36388 0.541584)
(-1.2107 4.38801 0.536604)
(-1.21641 4.37883 0.535938)
(-1.2209 4.34894 0.547626)
(-1.21906 4.34849 0.54103)
(-1.20565 4.39569 0.537078)
(-1.29662 4.48989 0.556786)
(-1.30589 4.48677 0.556789)
(-1.30764 4.49028 0.551337)
(-1.29838 4.49396 0.551053)
(-1.28769 4.49383 0.556223)
(-1.28906 4.49748 0.550759)
(-1.30643 4.48726 0.545464)
(-1.29719 4.4904 0.544852)
(-1.28823 4.49432 0.544897)
(-1.27908 4.49649 0.555575)
(-1.31457 4.48337 0.546037)
(-1.33684 4.39902 0.554811)
(-1.33375 4.38978 0.553961)
(-1.33728 4.38854 0.548391)
(-1.34095 4.39779 0.548962)
(-1.34077 4.40797 0.555077)
(-1.34445 4.4071 0.549529)
(-1.33429 4.39026 0.542636)
(-1.33741 4.39953 0.542877)
(-1.34131 4.40845 0.543751)
(-1.34341 4.41661 0.555222)
(-1.33042 4.3821 0.542452)
(-1.16297 3.48605 0.484727)
(-1.1653 3.53736 0.480892)
(-1.17029 3.46922 0.500918)
(-1.18301 3.48286 0.518769)
(-1.1953 3.51534 0.526021)
(-1.21445 3.5772 0.531538)
(-1.27402 3.79246 0.537226)
(-1.3074 3.91739 0.538299)
(-1.24164 3.67342 0.535147)
(-1.33616 4.02623 0.538916)
(-1.31419 4.30296 0.54362)
(-1.31142 4.32226 0.544315)
(-1.31259 4.30314 0.537206)
(-1.30985 4.32288 0.53784)
(-1.31963 4.28265 0.543009)
(-1.31783 4.28264 0.536669)
(-1.30923 4.32233 0.55064)
(-1.30902 4.34036 0.551465)
(-1.32548 4.26231 0.536258)
(-1.32762 4.26239 0.542522)
(-1.22143 4.33053 0.533947)
(-1.22022 4.30986 0.533084)
(-1.22152 4.3495 0.534701)
(-1.21949 4.33024 0.540268)
(-1.34871 4.22475 0.541915)
(-1.33779 4.24305 0.542178)
(-1.33467 4.24241 0.548067)
(-1.34516 4.22406 0.547694)
(-1.34573 4.22457 0.535788)
(-1.33525 4.24293 0.535986)
(-1.35867 4.20741 0.541647)
(-1.35474 4.20668 0.547322)
(-1.3553 4.20718 0.535582)
(-1.3623 4.19069 0.535288)
(-1.36597 4.19095 0.54129)
(-1.36175 4.19019 0.546872)
(-1.366 4.1471 0.540176)
(-1.36894 4.17364 0.540785)
(-1.36456 4.17286 0.546272)
(-1.36159 4.14633 0.545494)
(-1.36222 4.1468 0.53437)
(-1.36512 4.17335 0.534855)
(-1.3556 4.10131 0.53953)
(-1.35126 4.10057 0.544519)
(-1.35209 4.10101 0.533953)
(-1.33323 4.02593 0.533724)
(-1.33201 4.02556 0.543328)
(-1.28243 4.35311 0.581578)
(-1.27299 4.35067 0.580864)
(-1.27378 4.34713 0.575219)
(-1.28354 4.3491 0.575642)
(-1.29208 4.3547 0.58169)
(-1.29326 4.35123 0.576063)
(-1.27348 4.35067 0.569526)
(-1.28295 4.3531 0.56963)
(-1.29258 4.35469 0.570352)
(-1.30077 4.3572 0.581716)
(-1.30236 4.35451 0.576456)
(-1.26453 4.34946 0.569488)
(-1.26413 4.34645 0.574801)
(-1.19925 4.4074 0.577955)
(-1.19683 4.41686 0.577542)
(-1.19354 4.41632 0.571719)
(-1.19551 4.40655 0.571808)
(-1.20085 4.39775 0.577722)
(-1.19764 4.39681 0.571903)
(-1.19732 4.41686 0.566204)
(-1.19977 4.40739 0.566008)
(-1.20135 4.39775 0.566384)
(-1.20337 4.38907 0.577483)
(-1.20091 4.38771 0.572048)
(-1.1961 4.42581 0.566498)
(-1.19286 4.42597 0.571687)
(-1.33342 5.17551 0.555667)
(-1.3338 5.27151 0.553817)
(-1.33149 5.16982 0.553949)
(-1.33181 5.25925 0.552768)
(-1.31485 4.36957 0.582978)
(-1.30789 4.36272 0.582373)
(-1.31037 4.35992 0.576802)
(-1.31784 4.36651 0.577124)
(-1.32241 4.37576 0.582999)
(-1.3252 4.37323 0.57744)
(-1.30838 4.36272 0.571035)
(-1.31537 4.36956 0.57103)
(-1.32291 4.37576 0.57166)
(-1.32869 4.38227 0.582918)
(-1.33144 4.38062 0.577709)
(-1.30123 4.35719 0.571077)
(-1.33667 4.43637 0.583903)
(-1.33912 4.4269 0.583707)
(-1.34291 4.42744 0.578191)
(-1.34094 4.43721 0.578103)
(-1.3351 4.44601 0.583527)
(-1.3388 4.44694 0.578007)
(-1.33961 4.4269 0.572369)
(-1.33719 4.43636 0.571956)
(-1.33559 4.44601 0.572188)
(-1.33261 4.45469 0.583066)
(-1.33553 4.45605 0.577863)
(-1.34081 4.41795 0.572774)
(-1.34358 4.41779 0.578224)
(-1.2157 4.37495 0.578678)
(-1.20887 4.38193 0.578075)
(-1.20632 4.37969 0.572285)
(-1.21291 4.37221 0.572573)
(-1.2219 4.36739 0.578644)
(-1.21962 4.36485 0.572866)
(-1.20936 4.38193 0.566736)
(-1.21621 4.37495 0.56673)
(-1.22239 4.36739 0.567306)
(-1.22841 4.36113 0.578578)
(-1.227 4.3586 0.573188)
(-1.20383 4.38907 0.566845)
(-1.21999 4.47636 0.579106)
(-1.22433 4.48833 0.579518)
(-1.22199 4.4905 0.57293)
(-1.21741 4.47923 0.572735)
(-1.2134 4.46827 0.578279)
(-1.2111 4.47077 0.572464)
(-1.22489 4.48833 0.56657)
(-1.22053 4.47635 0.566612)
(-1.2139 4.46827 0.566872)
(-1.2073 4.46149 0.577631)
(-1.205 4.46314 0.572202)
(-1.22646 4.50384 0.566638)
(-1.22403 4.50488 0.573014)
(-1.3347 4.40004 0.583829)
(-1.33209 4.39062 0.583414)
(-1.33568 4.38932 0.57789)
(-1.33885 4.39876 0.578024)
(-1.33816 4.40919 0.583671)
(-1.34187 4.40826 0.578152)
(-1.33259 4.39062 0.572076)
(-1.33522 4.40004 0.571882)
(-1.33865 4.40918 0.572333)
(-1.34034 4.41795 0.583413)
(-1.32915 4.38226 0.57228)
(-1.32099 4.471 0.583487)
(-1.32718 4.46211 0.583213)
(-1.33023 4.46432 0.57763)
(-1.32439 4.47355 0.577374)
(-1.3167 4.48374 0.583523)
(-1.31975 4.48563 0.57717)
(-1.32767 4.4621 0.571806)
(-1.32154 4.47099 0.570992)
(-1.31436 4.50005 0.583413)
(-1.31675 4.50089 0.577035)
(-1.33308 4.45469 0.572427)
(-1.24614 4.35508 0.580004)
(-1.23675 4.3577 0.579291)
(-1.23569 4.35436 0.573566)
(-1.24513 4.35118 0.573976)
(-1.25529 4.35163 0.580096)
(-1.25462 4.34817 0.574389)
(-1.23724 4.3577 0.567952)
(-1.24666 4.35508 0.568056)
(-1.25578 4.35163 0.568758)
(-1.26406 4.34946 0.580127)
(-1.22888 4.36112 0.567939)
(-1.20122 4.44372 0.578029)
(-1.20386 4.45314 0.577835)
(-1.20077 4.45444 0.572021)
(-1.19759 4.44499 0.571886)
(-1.19779 4.43458 0.577578)
(-1.19458 4.43549 0.571759)
(-1.20435 4.45314 0.566497)
(-1.20174 4.44372 0.566082)
(-1.19829 4.43457 0.56624)
(-1.19564 4.42581 0.577137)
(-1.20776 4.46149 0.566992)
(-1.3292 5.36674 0.56067)
(-1.3301 5.31561 0.554586)
(-1.31955 5.38243 0.576793)
(-1.30609 5.36735 0.592854)
(-1.29504 5.33399 0.597652)
(-1.27897 5.27103 0.598924)
(-1.23128 5.05291 0.590548)
(-1.20499 4.92649 0.583578)
(-1.257 5.17345 0.59619)
(-1.18243 4.81637 0.577217)
(-1.21936 4.54123 0.5728)
(-1.22314 4.52209 0.57297)
(-1.22153 4.54143 0.566556)
(-1.22531 4.52185 0.566645)
(-1.21287 4.56124 0.572513)
(-1.21522 4.56163 0.566368)
(-1.22475 4.52186 0.579459)
(-1.2259 4.50384 0.579577)
(-1.20651 4.58153 0.566079)
(-1.20383 4.58106 0.572115)
(-1.31401 4.519 0.570491)
(-1.31414 4.53973 0.570571)
(-1.31492 4.50005 0.570474)
(-1.31537 4.51912 0.576969)
(-1.18081 4.61753 0.571105)
(-1.19267 4.59984 0.571625)
(-1.19521 4.60038 0.577794)
(-1.18378 4.61815 0.577205)
(-1.1843 4.61814 0.565285)
(-1.19574 4.60037 0.565699)
(-1.16995 4.63433 0.570629)
(-1.17332 4.63501 0.576662)
(-1.17382 4.635 0.56491)
(-1.16596 4.65111 0.564642)
(-1.1618 4.65038 0.570271)
(-1.16546 4.65111 0.576239)
(-1.15941 4.69418 0.570917)
(-1.15792 4.66752 0.570193)
(-1.16175 4.66828 0.576081)
(-1.16328 4.69494 0.57664)
(-1.16367 4.69493 0.565495)
(-1.16223 4.66827 0.56465)
(-1.16725 4.74043 0.573054)
(-1.17108 4.74117 0.578441)
(-1.17121 4.74116 0.567836)
(-1.18578 4.81706 0.572329)
(-1.18613 4.81706 0.582011)
)


// edges:

298
(
(6 7)
(8 9)
(10 6)
(9 11)
(12 13)
(13 14)
(10 15)
(11 16)
(12 17)
(8 18)
(19 20)
(21 22)
(23 19)
(22 24)
(25 26)
(26 27)
(23 28)
(24 29)
(25 30)
(21 31)
(32 33)
(34 35)
(36 37)
(38 39)
(40 36)
(39 41)
(42 43)
(43 44)
(40 45)
(41 46)
(42 47)
(38 16)
(48 49)
(50 51)
(52 48)
(51 53)
(54 55)
(55 56)
(52 57)
(53 58)
(54 59)
(50 60)
(61 62)
(63 64)
(65 61)
(64 66)
(67 68)
(68 69)
(65 70)
(66 71)
(67 72)
(63 29)
(73 74)
(75 76)
(77 73)
(76 78)
(79 80)
(80 81)
(77 82)
(78 83)
(79 84)
(75 85)
(86 87)
(88 89)
(90 86)
(89 91)
(92 93)
(93 94)
(90 95)
(91 60)
(92 96)
(88 46)
(97 98)
(99 100)
(101 97)
(100 102)
(103 104)
(101 105)
(102 106)
(103 107)
(99 58)
(108 109)
(110 111)
(112 108)
(111 113)
(114 115)
(115 116)
(112 117)
(113 18)
(114 118)
(110 71)
(119 120)
(121 122)
(123 119)
(122 124)
(125 126)
(126 127)
(123 128)
(124 31)
(125 129)
(121 83)
(0 130)
(130 1)
(0 131)
(1 132)
(131 35)
(0 33)
(2 133)
(133 134)
(134 135)
(2 132)
(136 137)
(138 136)
(137 139)
(138 135)
(140 141)
(142 143)
(144 140)
(145 142)
(146 147)
(141 85)
(145 148)
(144 149)
(150 151)
(150 152)
(153 106)
(154 155)
(156 157)
(158 159)
(160 154)
(157 161)
(162 158)
(155 149)
(159 148)
(162 163)
(160 164)
(161 165)
(166 167)
(168 169)
(170 171)
(172 166)
(169 173)
(174 170)
(168 165)
(167 164)
(171 163)
(174 175)
(172 139)
(173 176)
(177 178)
(179 180)
(181 177)
(180 182)
(183 184)
(184 185)
(181 186)
(182 187)
(183 188)
(179 189)
(190 191)
(192 193)
(194 190)
(193 195)
(196 197)
(197 198)
(194 199)
(195 200)
(196 201)
(192 202)
(203 204)
(205 206)
(207 208)
(209 210)
(211 207)
(210 212)
(213 214)
(214 215)
(211 216)
(212 217)
(213 218)
(209 187)
(219 220)
(221 222)
(223 219)
(222 224)
(225 226)
(226 227)
(223 228)
(224 229)
(225 230)
(221 231)
(232 233)
(234 235)
(236 232)
(235 237)
(238 239)
(239 240)
(236 241)
(237 242)
(238 243)
(234 200)
(244 245)
(246 247)
(248 244)
(247 249)
(250 251)
(251 252)
(248 253)
(249 254)
(250 255)
(246 256)
(257 258)
(259 260)
(261 257)
(260 262)
(263 264)
(264 265)
(261 266)
(262 231)
(263 267)
(259 217)
(268 269)
(270 271)
(272 268)
(271 273)
(274 275)
(272 276)
(273 277)
(274 278)
(270 229)
(279 280)
(281 282)
(283 279)
(282 284)
(285 286)
(286 287)
(283 288)
(284 189)
(285 289)
(281 242)
(290 291)
(292 293)
(294 290)
(293 295)
(296 297)
(297 298)
(294 299)
(295 202)
(296 300)
(292 254)
(3 301)
(301 4)
(3 302)
(4 303)
(302 206)
(3 204)
(5 304)
(304 305)
(305 306)
(5 303)
(307 308)
(309 307)
(308 310)
(309 306)
(311 312)
(313 314)
(315 311)
(316 313)
(317 318)
(312 256)
(316 319)
(315 320)
(321 322)
(321 323)
(324 277)
(325 326)
(327 328)
(329 330)
(331 325)
(328 332)
(333 329)
(326 320)
(330 319)
(333 334)
(331 335)
(332 336)
(337 338)
(339 340)
(341 342)
(343 337)
(340 344)
(345 341)
(339 336)
(338 335)
(342 334)
(345 346)
(343 310)
(344 347)
)

// * * * * * * * * * * * * * * * * * * * * * * * * * * * * * * * * * * * * * //


// ************************************************************************* //
