/*--------------------------------*- C++ -*----------------------------------*\
  =========                 |
  \\      /  F ield         | OpenFOAM: The Open Source CFD Toolbox
   \\    /   O peration     | Website:  https://openfoam.org
    \\  /    A nd           | Version:  12
     \\/     M anipulation  |
\*---------------------------------------------------------------------------*/
FoamFile
{
    format      ascii;
    class       featureEdgeMesh;
    location    "constant/triSurface";
    object      blade3.eMesh;
}
// * * * * * * * * * * * * * * * * * * * * * * * * * * * * * * * * * * * * * //


// points:

348
(
(2.16891 4.40623 0.445888)
(2.21571 4.41575 0.454679)
(2.21711 4.42605 0.472453)
(0.35133 4.38232 0.592578)
(0.306639 4.37034 0.607345)
(0.308117 4.36008 0.625135)
(1.18882 4.40074 0.552917)
(1.18633 4.41039 0.553127)
(1.19032 4.41113 0.558476)
(1.19328 4.40181 0.558531)
(1.19224 4.4018 0.546617)
(1.18933 4.41112 0.54717)
(1.19147 4.39114 0.552693)
(1.19535 4.39226 0.558051)
(1.19437 4.39226 0.546744)
(1.18513 4.42 0.553225)
(1.18768 4.41999 0.54766)
(1.19522 4.38222 0.552373)
(1.19828 4.38373 0.55745)
(1.24121 4.49184 0.548309)
(1.25083 4.49434 0.547473)
(1.25205 4.49083 0.553065)
(1.24279 4.48788 0.554177)
(1.24175 4.48788 0.542263)
(1.25106 4.49082 0.541758)
(1.23164 4.48918 0.549142)
(1.23325 4.48578 0.554701)
(1.23227 4.48577 0.543394)
(1.26039 4.49554 0.546641)
(1.25993 4.49252 0.541339)
(1.22276 4.48542 0.549916)
(1.22472 4.48281 0.555092)
(2.00577 4.39827 0.458369)
(2.09465 4.40285 0.449476)
(2.01167 4.39658 0.459499)
(2.10704 4.40148 0.44937)
(1.208 4.3674 0.551272)
(1.20104 4.37451 0.551872)
(1.20419 4.3769 0.557293)
(1.2114 4.3703 0.556976)
(1.21037 4.37029 0.545063)
(1.20321 4.37689 0.545986)
(1.21508 4.36041 0.550661)
(1.21795 4.36309 0.556106)
(1.21697 4.36308 0.5448)
(1.19736 4.38373 0.546842)
(1.22276 4.35457 0.549997)
(1.22473 4.35719 0.555169)
(1.27957 4.34815 0.545066)
(1.26996 4.34565 0.545903)
(1.26972 4.34916 0.551617)
(1.27903 4.35211 0.551113)
(1.278 4.3521 0.539199)
(1.26874 4.34916 0.540311)
(1.28914 4.35081 0.544234)
(1.28852 4.35422 0.549982)
(1.28753 4.35421 0.538675)
(1.26039 4.34445 0.546735)
(1.25993 4.34746 0.541428)
(1.29802 4.35457 0.54346)
(1.29698 4.35718 0.548893)
(1.20799 4.47259 0.551207)
(1.21508 4.47958 0.550587)
(1.21795 4.47691 0.556036)
(1.2114 4.4697 0.556915)
(1.21036 4.46969 0.545001)
(1.21696 4.4769 0.544729)
(1.20103 4.46548 0.551816)
(1.20419 4.4631 0.557239)
(1.2032 4.46309 0.545933)
(1.2238 4.4828 0.544483)
(1.19521 4.45777 0.552326)
(1.19828 4.45626 0.557405)
(1.31469 4.47388 0.541937)
(1.32615 4.46992 0.540945)
(1.3247 4.46719 0.547577)
(1.31253 4.47089 0.548404)
(1.31145 4.47088 0.535944)
(1.32358 4.46718 0.534666)
(1.30594 4.47974 0.542694)
(1.30408 4.47705 0.548587)
(1.30309 4.47705 0.537213)
(1.34057 4.46866 0.539693)
(1.33909 4.46645 0.533323)
(1.29802 4.48541 0.543379)
(1.29698 4.48281 0.548815)
(1.24122 4.34815 0.548398)
(1.23165 4.35081 0.549228)
(1.23325 4.35422 0.554782)
(1.24279 4.35211 0.554261)
(1.24175 4.3521 0.542347)
(1.23227 4.35421 0.543476)
(1.25083 4.34565 0.547565)
(1.25205 4.34916 0.553152)
(1.25107 4.34916 0.541846)
(1.22381 4.35718 0.544561)
(1.26086 4.34747 0.552037)
(1.31483 4.36666 0.541992)
(1.30596 4.36032 0.542766)
(1.3041 4.363 0.548657)
(1.31266 4.36964 0.548455)
(1.31158 4.36964 0.535996)
(1.30311 4.363 0.537282)
(1.32659 4.37194 0.540967)
(1.32513 4.37462 0.547597)
(1.29606 4.35718 0.538284)
(1.34162 4.37577 0.53966)
(1.34122 4.37784 0.546193)
(1.18882 4.43925 0.552893)
(1.19147 4.44885 0.552657)
(1.19535 4.44773 0.558016)
(1.19328 4.43819 0.558508)
(1.19224 4.43818 0.546595)
(1.19437 4.44773 0.54671)
(1.18633 4.4296 0.553116)
(1.19032 4.42887 0.558465)
(1.18933 4.42886 0.547159)
(1.19736 4.45626 0.546797)
(1.1886 4.42 0.558269)
(1.27957 4.49184 0.544977)
(1.28914 4.48918 0.544148)
(1.28851 4.48577 0.5499)
(1.27903 4.48788 0.551029)
(1.278 4.48788 0.539115)
(1.28753 4.48577 0.538594)
(1.26996 4.49434 0.545811)
(1.26972 4.49083 0.55153)
(1.26874 4.49082 0.540223)
(1.29606 4.4828 0.538206)
(1.26085 4.49252 0.551947)
(2.20215 4.41093 0.448204)
(2.15079 4.40753 0.446512)
(2.2187 4.42072 0.463353)
(2.20444 4.43265 0.481271)
(2.17112 4.44166 0.489442)
(2.10779 4.45423 0.49689)
(1.75997 4.51003 0.514788)
(1.88767 4.49035 0.509593)
(2.00938 4.47098 0.503611)
(1.64873 4.52685 0.519009)
(1.35765 4.47048 0.538208)
(1.37648 4.47529 0.536569)
(1.39603 4.48286 0.534866)
(1.35696 4.46857 0.531832)
(1.37623 4.47341 0.530236)
(1.396 4.4808 0.528607)
(1.34021 4.46645 0.546225)
(1.35807 4.46858 0.54461)
(1.41526 4.49297 0.53319)
(1.41533 4.49059 0.527017)
(1.37955 4.38076 0.530005)
(1.35892 4.37976 0.531717)
(1.3401 4.37783 0.53329)
(1.35967 4.37814 0.53809)
(1.4516 4.51477 0.536007)
(1.43455 4.50238 0.537585)
(1.43334 4.50515 0.531612)
(1.4503 4.51796 0.53013)
(1.4678 4.52614 0.534509)
(1.46642 4.52972 0.528723)
(1.4335 4.50237 0.525523)
(1.45057 4.51476 0.524121)
(1.46678 4.52613 0.52279)
(1.48339 4.53487 0.533072)
(1.48195 4.53874 0.527368)
(1.48238 4.53486 0.521507)
(1.52691 4.5394 0.529799)
(1.50027 4.53951 0.531612)
(1.4988 4.54354 0.525997)
(1.52545 4.54347 0.524351)
(1.57345 4.53405 0.527241)
(1.57205 4.53805 0.522124)
(1.49927 4.53952 0.520213)
(1.52594 4.53948 0.51869)
(1.57252 4.53436 0.51668)
(1.65002 4.52299 0.523546)
(1.64915 4.52375 0.513927)
(1.33528 4.44125 0.571731)
(1.33829 4.43175 0.571604)
(1.33508 4.43083 0.577423)
(1.33165 4.43997 0.577874)
(1.33113 4.43997 0.565927)
(1.33458 4.43082 0.566085)
(1.3321 4.45069 0.571866)
(1.32901 4.44939 0.57768)
(1.32852 4.44939 0.566342)
(1.34001 4.42222 0.571532)
(1.33677 4.42206 0.566343)
(1.32787 4.45939 0.572047)
(1.32557 4.45775 0.577476)
(1.28774 4.34743 0.573821)
(1.27825 4.34442 0.574233)
(1.27758 4.34788 0.579941)
(1.28673 4.35133 0.579849)
(1.28621 4.35133 0.567901)
(1.27709 4.34788 0.568603)
(1.29718 4.35061 0.573411)
(1.29612 4.35395 0.579136)
(1.29563 4.35395 0.567797)
(1.26874 4.3427 0.574646)
(1.26834 4.34571 0.569333)
(1.30587 4.35485 0.573033)
(1.30446 4.35738 0.578423)
(0.514035 4.39913 0.583829)
(0.425137 4.38972 0.586518)
(0.508245 4.40051 0.585716)
(0.412781 4.39042 0.588021)
(1.31427 4.4735 0.572632)
(1.32162 4.46678 0.572315)
(1.31933 4.46425 0.578095)
(1.31179 4.47045 0.578725)
(1.31128 4.47044 0.566778)
(1.31884 4.46425 0.566757)
(1.3068 4.48009 0.572954)
(1.30481 4.47729 0.578721)
(1.30432 4.47729 0.567383)
(1.32511 4.45774 0.566837)
(1.29879 4.4855 0.573299)
(1.29765 4.48282 0.578679)
(1.24155 4.48883 0.57578)
(1.25104 4.49184 0.575367)
(1.25221 4.48838 0.580998)
(1.24308 4.48493 0.581699)
(1.24257 4.48493 0.569752)
(1.25172 4.48838 0.569659)
(1.23212 4.48565 0.57619)
(1.23366 4.48231 0.581803)
(1.23317 4.48231 0.570465)
(1.26056 4.49356 0.574954)
(1.26049 4.49055 0.569629)
(1.22343 4.48141 0.576568)
(1.2253 4.47889 0.581817)
(1.31996 4.36846 0.572418)
(1.31325 4.3611 0.572711)
(1.31097 4.36364 0.578489)
(1.31717 4.3712 0.578523)
(1.31666 4.3712 0.566575)
(1.31048 4.36364 0.567151)
(1.32655 4.37594 0.57213)
(1.324 4.37818 0.57792)
(1.32351 4.37818 0.566581)
(1.30399 4.35737 0.567784)
(1.33196 4.38396 0.571893)
(1.3295 4.38532 0.577328)
(1.21319 4.36137 0.577049)
(1.2015 4.3647 0.577554)
(1.20365 4.36754 0.583946)
(1.216 4.36451 0.583185)
(1.21546 4.36451 0.57069)
(1.20309 4.36754 0.570999)
(1.22227 4.356 0.576657)
(1.22473 4.35881 0.582263)
(1.22423 4.35881 0.570857)
(1.18699 4.36517 0.578183)
(1.18752 4.36743 0.571678)
(1.23051 4.35076 0.576301)
(1.2321 4.35345 0.581561)
(1.27996 4.49091 0.574114)
(1.28969 4.48878 0.573693)
(1.289 4.48532 0.579404)
(1.27938 4.48691 0.580125)
(1.27886 4.4869 0.568178)
(1.28851 4.48531 0.568065)
(1.2702 4.49288 0.574536)
(1.26991 4.48934 0.58023)
(1.26942 4.48934 0.568892)
(1.29719 4.48281 0.56804)
(1.26095 4.49055 0.580267)
(1.20725 4.46843 0.577273)
(1.21579 4.47524 0.576901)
(1.21854 4.47269 0.582496)
(1.2104 4.4656 0.583396)
(1.20985 4.46559 0.570902)
(1.21804 4.47269 0.57109)
(1.19576 4.46251 0.577773)
(1.19821 4.45995 0.584153)
(1.22484 4.47888 0.571178)
(1.18092 4.45787 0.578418)
(1.18227 4.45586 0.584842)
(1.33736 4.4028 0.571653)
(1.33523 4.39306 0.571748)
(1.33202 4.394 0.577567)
(1.33362 4.40365 0.5778)
(1.3331 4.40364 0.565853)
(1.33152 4.394 0.566229)
(1.33933 4.41257 0.571564)
(1.33604 4.41311 0.577387)
(1.33555 4.41311 0.566049)
(1.32904 4.38532 0.56669)
(1.33723 4.42206 0.576982)
(1.24933 4.34535 0.575487)
(1.23961 4.34749 0.575908)
(1.24079 4.35095 0.581535)
(1.25044 4.34936 0.581423)
(1.24992 4.34936 0.569475)
(1.24029 4.35094 0.570197)
(1.25909 4.34338 0.575064)
(1.25988 4.34692 0.580709)
(1.25939 4.34692 0.569371)
(1.23164 4.35345 0.570922)
(1.26881 4.34571 0.579972)
(0.31897 4.37584 0.599174)
(0.369421 4.382 0.590847)
(0.305078 4.36526 0.616325)
(0.322158 4.35422 0.632229)
(0.356695 4.34707 0.636001)
(0.421041 4.33797 0.635163)
(0.770766 4.30111 0.607767)
(0.642587 4.31384 0.619189)
(0.520259 4.32659 0.629053)
(0.882363 4.29034 0.597516)
(1.17 4.36242 0.578921)
(1.15139 4.3566 0.579729)
(1.13223 4.34797 0.580563)
(1.16975 4.36433 0.572512)
(1.15072 4.35846 0.573419)
(1.13134 4.35 0.574354)
(1.18808 4.36743 0.584617)
(1.1703 4.36434 0.585326)
(1.11352 4.33683 0.581377)
(1.11253 4.33918 0.575268)
(1.14238 4.45079 0.573752)
(1.16298 4.4529 0.572778)
(1.18171 4.45586 0.571902)
(1.16297 4.45452 0.579197)
(1.07908 4.31312 0.588848)
(1.0955 4.32643 0.58822)
(1.09608 4.32369 0.582137)
(1.07978 4.30998 0.582848)
(1.06347 4.30089 0.589445)
(1.06428 4.29736 0.583524)
(1.09498 4.32642 0.576125)
(1.07857 4.31312 0.576929)
(1.06296 4.30088 0.577693)
(1.04832 4.29132 0.590027)
(1.04922 4.28751 0.58418)
(1.04782 4.29132 0.57843)
(1.00505 4.28444 0.592414)
(1.03167 4.28577 0.590759)
(1.03262 4.28179 0.584997)
(1.00601 4.28042 0.586818)
(0.958348 4.28725 0.595916)
(0.95929 4.2833 0.590655)
(1.03118 4.28576 0.579329)
(1.00458 4.28434 0.581273)
(0.957923 4.28693 0.585323)
(0.881458 4.29415 0.602188)
(0.881123 4.29338 0.592535)
)


// edges:

298
(
(6 7)
(8 9)
(10 11)
(12 6)
(9 13)
(14 10)
(7 15)
(11 16)
(12 17)
(13 18)
(19 20)
(21 22)
(23 24)
(25 19)
(22 26)
(27 23)
(20 28)
(24 29)
(25 30)
(26 31)
(32 33)
(34 35)
(36 37)
(38 39)
(40 41)
(42 36)
(39 43)
(44 40)
(37 17)
(41 45)
(42 46)
(43 47)
(48 49)
(50 51)
(52 53)
(54 48)
(51 55)
(56 52)
(49 57)
(53 58)
(54 59)
(55 60)
(61 62)
(63 64)
(65 66)
(67 61)
(64 68)
(69 65)
(62 30)
(66 70)
(67 71)
(68 72)
(73 74)
(75 76)
(77 78)
(79 73)
(76 80)
(81 77)
(74 82)
(78 83)
(79 84)
(80 85)
(86 87)
(88 89)
(90 91)
(92 86)
(89 93)
(94 90)
(87 46)
(91 95)
(92 57)
(93 96)
(97 98)
(99 100)
(101 102)
(103 97)
(100 104)
(98 59)
(102 105)
(103 106)
(104 107)
(108 109)
(110 111)
(112 113)
(114 108)
(111 115)
(116 112)
(109 71)
(113 117)
(114 15)
(115 118)
(119 120)
(121 122)
(123 124)
(125 119)
(122 126)
(127 123)
(120 84)
(124 128)
(125 28)
(126 129)
(130 0)
(131 0)
(1 130)
(0 35)
(131 33)
(1 132)
(133 2)
(134 133)
(2 132)
(134 135)
(136 137)
(137 138)
(138 135)
(136 139)
(140 141)
(141 142)
(143 144)
(144 145)
(146 147)
(142 148)
(145 149)
(140 82)
(150 151)
(152 151)
(153 106)
(154 155)
(156 157)
(158 154)
(157 159)
(160 161)
(161 162)
(158 163)
(159 164)
(162 165)
(160 149)
(156 148)
(166 167)
(168 169)
(170 166)
(169 171)
(172 173)
(173 174)
(163 167)
(170 175)
(171 139)
(174 176)
(172 165)
(168 164)
(177 178)
(179 180)
(181 182)
(183 177)
(180 184)
(185 181)
(178 186)
(182 187)
(183 188)
(184 189)
(190 191)
(192 193)
(194 195)
(196 190)
(193 197)
(198 194)
(191 199)
(195 200)
(196 201)
(197 202)
(203 204)
(205 206)
(207 208)
(209 210)
(211 212)
(213 207)
(210 214)
(215 211)
(208 188)
(212 216)
(213 217)
(214 218)
(219 220)
(221 222)
(223 224)
(225 219)
(222 226)
(227 223)
(220 228)
(224 229)
(225 230)
(226 231)
(232 233)
(234 235)
(236 237)
(238 232)
(235 239)
(240 236)
(233 201)
(237 241)
(238 242)
(239 243)
(244 245)
(246 247)
(248 249)
(250 244)
(247 251)
(252 248)
(245 253)
(249 254)
(250 255)
(251 256)
(257 258)
(259 260)
(261 262)
(263 257)
(260 264)
(265 261)
(258 217)
(262 266)
(263 228)
(264 267)
(268 269)
(270 271)
(272 273)
(274 268)
(271 275)
(269 230)
(273 276)
(274 277)
(275 278)
(279 280)
(281 282)
(283 284)
(285 279)
(282 286)
(287 283)
(280 242)
(284 288)
(285 186)
(286 289)
(290 291)
(292 293)
(294 295)
(296 290)
(293 297)
(298 294)
(291 255)
(295 299)
(296 199)
(297 300)
(301 3)
(302 3)
(4 301)
(3 206)
(302 204)
(4 303)
(304 5)
(305 304)
(5 303)
(305 306)
(307 308)
(308 309)
(309 306)
(307 310)
(311 312)
(312 313)
(314 315)
(315 316)
(317 318)
(313 319)
(316 320)
(311 253)
(321 322)
(323 322)
(324 277)
(325 326)
(327 328)
(329 325)
(328 330)
(331 332)
(332 333)
(329 334)
(330 335)
(333 336)
(331 320)
(327 319)
(337 338)
(339 340)
(341 337)
(340 342)
(343 344)
(344 345)
(334 338)
(341 346)
(342 310)
(345 347)
(343 336)
(339 335)
)

// * * * * * * * * * * * * * * * * * * * * * * * * * * * * * * * * * * * * * //


// ************************************************************************* //
