/*--------------------------------*- C++ -*----------------------------------*\
  =========                 |
  \\      /  F ield         | OpenFOAM: The Open Source CFD Toolbox
   \\    /   O peration     | Website:  https://openfoam.org
    \\  /    A nd           | Version:  12
     \\/     M anipulation  |
\*---------------------------------------------------------------------------*/
FoamFile
{
    format      ascii;
    class       featureEdgeMesh;
    location    "constant/triSurface";
    object      drone.eMesh;
}
// * * * * * * * * * * * * * * * * * * * * * * * * * * * * * * * * * * * * * //


// points:

552
(
(-1.29585 8.071 0.625325)
(-1.29585 8.071 0.687638)
(-1.22904 8.13781 0.687638)
(-1.22904 8.13781 0.625325)
(-0.346939 7.36235 0.741272)
(-0.346939 7.36235 0.571691)
(-0.346939 7.28904 0.741272)
(-0.346939 7.28904 0.571691)
(1.28454 8.071 0.625325)
(1.28454 8.071 0.687638)
(1.21773 8.13781 0.687638)
(1.21773 8.13781 0.625325)
(0.335632 7.36235 0.741272)
(0.335632 7.36235 0.571691)
(0.335632 7.28904 0.741272)
(0.335632 7.28904 0.571691)
(-1.29585 4.46175 0.625325)
(-1.29585 4.46175 0.687638)
(-1.22904 4.39495 0.687638)
(-1.22904 4.39495 0.625325)
(-0.346939 5.1704 0.741272)
(-0.346939 5.1704 0.571691)
(-0.346939 5.24371 0.741272)
(-0.346939 5.24371 0.571691)
(1.28454 4.46175 0.625325)
(1.28454 4.46175 0.687638)
(1.21773 4.39495 0.687638)
(1.21773 4.39495 0.625325)
(0.335632 5.1704 0.741272)
(0.335632 5.1704 0.571691)
(0.335632 5.24371 0.741272)
(0.335632 5.24371 0.571691)
(-1.32189 8.0588 0.517735)
(-1.28859 8.03957 0.517735)
(-1.28719 8.04479 0.530343)
(-1.25013 8.03957 0.517735)
(-1.25153 8.04479 0.530343)
(-1.19761 8.0921 0.517735)
(-1.20283 8.0935 0.530343)
(-1.21683 8.16385 0.517735)
(-1.22066 8.16003 0.530343)
(-1.28859 8.18308 0.517735)
(-1.31806 8.16003 0.530343)
(-1.34111 8.13055 0.517735)
(1.27588 8.04479 0.530343)
(1.27728 8.03957 0.517735)
(1.31058 8.0588 0.517735)
(1.24023 8.04479 0.530343)
(1.23883 8.03957 0.517735)
(1.19152 8.0935 0.530343)
(1.1863 8.0921 0.517735)
(1.20935 8.16003 0.530343)
(1.20553 8.16385 0.517735)
(1.27728 8.18308 0.517735)
(1.30675 8.16003 0.530343)
(1.3298 8.13055 0.517735)
(-1.31806 4.47013 0.530343)
(-1.28859 4.49318 0.517735)
(-1.32189 4.47396 0.517735)
(-1.25153 4.48796 0.530343)
(-1.25013 4.49318 0.517735)
(-1.20283 4.43926 0.530343)
(-1.19761 4.44066 0.517735)
(-1.22066 4.37273 0.530343)
(-1.21683 4.3689 0.517735)
(-1.28719 4.3549 0.530343)
(-1.32189 4.3689 0.517735)
(-1.33589 4.4036 0.530343)
(-1.34111 4.4022 0.517735)
(1.30676 4.47013 0.530343)
(1.31058 4.47396 0.517735)
(1.27728 4.49318 0.517735)
(1.23883 4.49318 0.517735)
(1.24023 4.48796 0.530343)
(1.1863 4.44066 0.517735)
(1.19152 4.43926 0.530343)
(1.20553 4.3689 0.517735)
(1.20935 4.37273 0.530343)
(1.27588 4.3549 0.530343)
(1.31058 4.3689 0.517735)
(1.3298 4.4022 0.517735)
(1.32458 4.4036 0.530343)
(-1.28782 8.08315 0.62247)
(-1.28782 8.08315 0.690493)
(-1.24118 8.12978 0.690493)
(-1.24118 8.12978 0.62247)
(-1.28797 8.083 0.690512)
(-1.28797 8.083 0.622451)
(-1.24103 8.12993 0.690512)
(-1.24103 8.12993 0.622451)
(1.27651 8.08315 0.62247)
(1.27651 8.08315 0.690493)
(1.22988 8.12978 0.690493)
(1.22988 8.12978 0.62247)
(1.27666 8.083 0.690512)
(1.27666 8.083 0.622451)
(1.22973 8.12993 0.690512)
(1.22973 8.12993 0.622451)
(-1.28782 4.44961 0.62247)
(-1.28782 4.44961 0.690493)
(-1.24118 4.40297 0.690493)
(-1.24118 4.40297 0.62247)
(-1.28797 4.44976 0.690512)
(-1.28797 4.44976 0.622451)
(-1.24103 4.40282 0.690512)
(-1.24103 4.40282 0.622451)
(1.27651 4.44961 0.62247)
(1.27651 4.44961 0.690493)
(1.22988 4.40297 0.690493)
(1.22988 4.40297 0.62247)
(1.27666 4.44976 0.690512)
(1.27666 4.44976 0.622451)
(1.22973 4.40282 0.690512)
(1.22973 4.40282 0.622451)
(-0.52223 7.18202 0.588301)
(-0.52223 7.18202 0.724662)
(-0.588909 7.22052 0.724661)
(-0.588909 7.22052 0.588302)
(-1.22881 8.1187 0.61471)
(-0.485073 7.46937 0.564811)
(-1.27674 8.07078 0.61471)
(-0.627406 7.36419 0.564811)
(-0.378558 7.22052 0.724663)
(-0.378558 7.22052 0.5883)
(-0.445236 7.18202 0.724663)
(-0.445236 7.18202 0.5883)
(-0.52223 7.46937 0.748152)
(-1.22881 8.1187 0.698253)
(-0.378558 7.43087 0.724661)
(-0.378558 7.43087 0.588302)
(-1.27674 8.07078 0.698253)
(-0.627406 7.32704 0.748152)
(-1.28922 8.05915 0.621728)
(-1.30027 8.07071 0.638841)
(-1.28922 8.05915 0.691235)
(-1.30027 8.07071 0.674122)
(-1.21719 8.13119 0.691235)
(-1.22874 8.14224 0.674122)
(-1.21719 8.13119 0.621728)
(-1.22874 8.14224 0.638841)
(-0.585613 7.22656 0.741271)
(-0.627406 7.29887 0.741271)
(-0.627406 7.29887 0.571692)
(-0.585613 7.22656 0.571691)
(-0.456904 7.46937 0.741271)
(-0.384597 7.42758 0.741271)
(-0.384597 7.42758 0.571691)
(-0.456904 7.46937 0.571692)
(-0.383593 7.22556 0.741272)
(-0.383593 7.22556 0.571691)
(-0.447079 7.1889 0.741272)
(-0.447079 7.1889 0.571691)
(-0.520387 7.1889 0.741272)
(-0.520387 7.1889 0.571691)
(-1.29262 8.08806 0.673548)
(-1.29305 8.08764 0.639415)
(-1.2645 8.10647 0.690519)
(-1.2645 8.10647 0.622444)
(-1.2461 8.13459 0.639415)
(-1.24567 8.13501 0.673548)
(0.577601 7.22052 0.588302)
(0.577601 7.22052 0.724661)
(0.510923 7.18202 0.724662)
(0.510923 7.18202 0.588301)
(0.473766 7.46937 0.564811)
(1.21751 8.1187 0.61471)
(0.616098 7.36419 0.564811)
(1.26543 8.07078 0.61471)
(0.36725 7.22052 0.5883)
(0.36725 7.22052 0.724663)
(0.433929 7.18202 0.5883)
(0.433929 7.18202 0.724663)
(1.21751 8.1187 0.698253)
(0.510923 7.46937 0.748152)
(0.36725 7.43087 0.588302)
(0.36725 7.43087 0.724661)
(0.616098 7.32704 0.748152)
(1.26543 8.07078 0.698253)
(1.28896 8.07071 0.638841)
(1.27792 8.05915 0.621728)
(1.27792 8.05915 0.691235)
(1.28896 8.07071 0.674122)
(1.20588 8.13119 0.691235)
(1.21744 8.14224 0.674122)
(1.20588 8.13119 0.621728)
(1.21744 8.14224 0.638841)
(0.616098 7.29887 0.741271)
(0.574305 7.22656 0.741271)
(0.574305 7.22656 0.571691)
(0.616098 7.29887 0.571692)
(0.37329 7.42758 0.741271)
(0.445597 7.46937 0.741271)
(0.445597 7.46937 0.571692)
(0.37329 7.42758 0.571691)
(0.372286 7.22556 0.741272)
(0.372286 7.22556 0.571691)
(0.435772 7.1889 0.741272)
(0.435772 7.1889 0.571691)
(0.50908 7.1889 0.741272)
(0.50908 7.1889 0.571691)
(1.28131 8.08806 0.673548)
(1.28174 8.08764 0.639415)
(1.2532 8.10647 0.690519)
(1.2532 8.10647 0.622444)
(1.23479 8.13459 0.639415)
(1.23437 8.13501 0.673548)
(-0.588909 5.31223 0.588302)
(-0.588909 5.31223 0.724661)
(-0.52223 5.35073 0.724662)
(-0.52223 5.35073 0.588301)
(-0.485073 5.06338 0.564811)
(-1.22881 4.41405 0.61471)
(-0.627406 5.16856 0.564811)
(-1.27674 4.46198 0.61471)
(-0.378558 5.31223 0.5883)
(-0.378558 5.31223 0.724663)
(-0.445236 5.35073 0.5883)
(-0.445236 5.35073 0.724663)
(-1.22881 4.41405 0.698253)
(-0.52223 5.06338 0.748152)
(-0.378558 5.10188 0.588302)
(-0.378558 5.10188 0.724661)
(-0.627406 5.20572 0.748152)
(-1.27674 4.46198 0.698253)
(-1.30027 4.46205 0.638841)
(-1.28922 4.4736 0.621728)
(-1.28922 4.4736 0.691235)
(-1.30027 4.46205 0.674122)
(-1.21719 4.40157 0.691235)
(-1.22874 4.39052 0.674122)
(-1.21719 4.40157 0.621728)
(-1.22874 4.39052 0.638841)
(-0.627406 5.23389 0.741271)
(-0.585613 5.30619 0.741271)
(-0.585613 5.30619 0.571691)
(-0.627406 5.23389 0.571692)
(-0.384597 5.10518 0.741271)
(-0.456904 5.06339 0.741271)
(-0.456904 5.06339 0.571692)
(-0.384597 5.10518 0.571691)
(-0.383593 5.3072 0.741272)
(-0.383593 5.3072 0.571691)
(-0.447079 5.34385 0.741272)
(-0.447079 5.34385 0.571691)
(-0.520387 5.34385 0.741272)
(-0.520387 5.34385 0.571691)
(-1.29262 4.44469 0.673548)
(-1.29305 4.44512 0.639415)
(-1.2645 4.42629 0.690519)
(-1.2645 4.42629 0.622444)
(-1.2461 4.39817 0.639415)
(-1.24567 4.39774 0.673548)
(0.510923 5.35073 0.588301)
(0.510923 5.35073 0.724662)
(0.577601 5.31223 0.724661)
(0.577601 5.31223 0.588302)
(1.21751 4.41405 0.61471)
(0.473766 5.06338 0.564811)
(1.26543 4.46198 0.61471)
(0.616098 5.16856 0.564811)
(0.36725 5.31223 0.724663)
(0.36725 5.31223 0.5883)
(0.433929 5.35073 0.724663)
(0.433929 5.35073 0.5883)
(0.510923 5.06338 0.748152)
(1.21751 4.41405 0.698253)
(0.36725 5.10188 0.724661)
(0.36725 5.10188 0.588302)
(1.26543 4.46198 0.698253)
(0.616098 5.20572 0.748152)
(1.27792 4.4736 0.621728)
(1.28896 4.46205 0.638841)
(1.27792 4.4736 0.691235)
(1.28896 4.46205 0.674122)
(1.20588 4.40157 0.691235)
(1.21744 4.39052 0.674122)
(1.20588 4.40157 0.621728)
(1.21744 4.39052 0.638841)
(0.574305 5.30619 0.741271)
(0.616098 5.23389 0.741271)
(0.616098 5.23389 0.571692)
(0.574305 5.30619 0.571691)
(0.445597 5.06339 0.741271)
(0.37329 5.10518 0.741271)
(0.37329 5.10518 0.571691)
(0.445597 5.06339 0.571692)
(0.372286 5.3072 0.741272)
(0.372286 5.3072 0.571691)
(0.435772 5.34385 0.741272)
(0.435772 5.34385 0.571691)
(0.50908 5.34385 0.741272)
(0.50908 5.34385 0.571691)
(1.28131 4.44469 0.673548)
(1.28174 4.44512 0.639415)
(1.2532 4.42629 0.690519)
(1.2532 4.42629 0.622444)
(1.23479 4.39817 0.639415)
(1.23437 4.39774 0.673548)
(-1.35932 8.02136 0.717413)
(-1.37954 8.04771 0.717413)
(-1.37954 8.04771 0.59555)
(-1.35932 8.02136 0.59555)
(-1.39225 8.07839 0.717413)
(-1.39225 8.07839 0.59555)
(-1.39658 8.11132 0.717413)
(-1.39658 8.11132 0.59555)
(-1.39225 8.14425 0.717413)
(-1.39225 8.14425 0.59555)
(-1.37954 8.17494 0.717413)
(-1.37954 8.17494 0.59555)
(-1.35932 8.20128 0.717413)
(-1.35932 8.20128 0.59555)
(-1.33297 8.2215 0.717413)
(-1.33297 8.2215 0.59555)
(-1.30229 8.23421 0.717413)
(-1.30229 8.23421 0.59555)
(-1.26936 8.23855 0.717413)
(-1.26936 8.23855 0.59555)
(-1.23643 8.23421 0.717413)
(-1.23643 8.23421 0.59555)
(-1.20575 8.2215 0.717413)
(-1.20575 8.2215 0.59555)
(-1.1794 8.20128 0.717413)
(-1.1794 8.20128 0.59555)
(-1.15918 8.17494 0.717413)
(-1.15918 8.17494 0.59555)
(-1.14647 8.14425 0.717413)
(-1.14647 8.14425 0.59555)
(-1.14213 8.11132 0.717413)
(-1.14213 8.11132 0.59555)
(-1.14647 8.07839 0.717413)
(-1.14647 8.07839 0.59555)
(-1.15918 8.04771 0.717413)
(-1.15918 8.04771 0.59555)
(-1.1794 8.02136 0.717413)
(-1.1794 8.02136 0.59555)
(-1.20575 8.00114 0.717413)
(-1.20575 8.00114 0.59555)
(-1.23643 7.98843 0.717413)
(-1.23643 7.98843 0.59555)
(-1.26936 7.9841 0.717413)
(-1.26936 7.9841 0.59555)
(-1.30229 7.98843 0.717413)
(-1.30229 7.98843 0.59555)
(-1.33297 8.00114 0.717413)
(-1.33297 8.00114 0.59555)
(1.36823 8.04771 0.717413)
(1.34801 8.02136 0.717413)
(1.34801 8.02136 0.59555)
(1.36823 8.04771 0.59555)
(1.38094 8.07839 0.717413)
(1.38094 8.07839 0.59555)
(1.38528 8.11132 0.717413)
(1.38528 8.11132 0.59555)
(1.38094 8.14425 0.717413)
(1.38094 8.14425 0.59555)
(1.36823 8.17494 0.717413)
(1.36823 8.17494 0.59555)
(1.34801 8.20128 0.717413)
(1.34801 8.20128 0.59555)
(1.32166 8.2215 0.717413)
(1.32166 8.2215 0.59555)
(1.29098 8.23421 0.717413)
(1.29098 8.23421 0.59555)
(1.25805 8.23855 0.717413)
(1.25805 8.23855 0.59555)
(1.22512 8.23421 0.717413)
(1.22512 8.23421 0.59555)
(1.19444 8.2215 0.717413)
(1.19444 8.2215 0.59555)
(1.16809 8.20128 0.717413)
(1.16809 8.20128 0.59555)
(1.14787 8.17494 0.717413)
(1.14787 8.17494 0.59555)
(1.13516 8.14425 0.717413)
(1.13516 8.14425 0.59555)
(1.13083 8.11132 0.717413)
(1.13083 8.11132 0.59555)
(1.13516 8.07839 0.717413)
(1.13516 8.07839 0.59555)
(1.14787 8.04771 0.717413)
(1.14787 8.04771 0.59555)
(1.16809 8.02136 0.717413)
(1.16809 8.02136 0.59555)
(1.19444 8.00114 0.717413)
(1.19444 8.00114 0.59555)
(1.22512 7.98843 0.717413)
(1.22512 7.98843 0.59555)
(1.25805 7.9841 0.717413)
(1.25805 7.9841 0.59555)
(1.29098 7.98843 0.717413)
(1.29098 7.98843 0.59555)
(1.32166 8.00114 0.717413)
(1.32166 8.00114 0.59555)
(-1.37954 4.48504 0.717413)
(-1.35932 4.51139 0.717413)
(-1.35932 4.51139 0.59555)
(-1.37954 4.48504 0.59555)
(-1.39225 4.45436 0.717413)
(-1.39225 4.45436 0.59555)
(-1.39658 4.42143 0.717413)
(-1.39658 4.42143 0.59555)
(-1.39225 4.3885 0.717413)
(-1.39225 4.3885 0.59555)
(-1.37954 4.35782 0.717413)
(-1.37954 4.35782 0.59555)
(-1.35932 4.33147 0.717413)
(-1.35932 4.33147 0.59555)
(-1.33297 4.31125 0.717413)
(-1.33297 4.31125 0.59555)
(-1.30229 4.29854 0.717413)
(-1.30229 4.29854 0.59555)
(-1.26936 4.29421 0.717413)
(-1.26936 4.29421 0.59555)
(-1.23643 4.29854 0.717413)
(-1.23643 4.29854 0.59555)
(-1.20575 4.31125 0.717413)
(-1.20575 4.31125 0.59555)
(-1.1794 4.33147 0.717413)
(-1.1794 4.33147 0.59555)
(-1.15918 4.35782 0.717413)
(-1.15918 4.35782 0.59555)
(-1.14647 4.3885 0.717413)
(-1.14647 4.3885 0.59555)
(-1.14213 4.42143 0.717413)
(-1.14213 4.42143 0.59555)
(-1.14647 4.45436 0.717413)
(-1.14647 4.45436 0.59555)
(-1.15918 4.48504 0.717413)
(-1.15918 4.48504 0.59555)
(-1.1794 4.51139 0.717413)
(-1.1794 4.51139 0.59555)
(-1.20575 4.53161 0.717413)
(-1.20575 4.53161 0.59555)
(-1.23643 4.54432 0.717413)
(-1.23643 4.54432 0.59555)
(-1.26936 4.54866 0.717413)
(-1.26936 4.54866 0.59555)
(-1.30229 4.54432 0.717413)
(-1.30229 4.54432 0.59555)
(-1.33297 4.53161 0.717413)
(-1.33297 4.53161 0.59555)
(1.34801 4.51139 0.717413)
(1.36823 4.48504 0.717413)
(1.36823 4.48504 0.59555)
(1.34801 4.51139 0.59555)
(1.38094 4.45436 0.717413)
(1.38094 4.45436 0.59555)
(1.38528 4.42143 0.717413)
(1.38528 4.42143 0.59555)
(1.38094 4.3885 0.717413)
(1.38094 4.3885 0.59555)
(1.36823 4.35782 0.717413)
(1.36823 4.35782 0.59555)
(1.34801 4.33147 0.717413)
(1.34801 4.33147 0.59555)
(1.32166 4.31125 0.717413)
(1.32166 4.31125 0.59555)
(1.29098 4.29854 0.717413)
(1.29098 4.29854 0.59555)
(1.25805 4.29421 0.717413)
(1.25805 4.29421 0.59555)
(1.22512 4.29854 0.717413)
(1.22512 4.29854 0.59555)
(1.19444 4.31125 0.717413)
(1.19444 4.31125 0.59555)
(1.16809 4.33147 0.717413)
(1.16809 4.33147 0.59555)
(1.14787 4.35782 0.717413)
(1.14787 4.35782 0.59555)
(1.13516 4.3885 0.717413)
(1.13516 4.3885 0.59555)
(1.13083 4.42143 0.717413)
(1.13083 4.42143 0.59555)
(1.13516 4.45436 0.717413)
(1.13516 4.45436 0.59555)
(1.14787 4.48504 0.717413)
(1.14787 4.48504 0.59555)
(1.16809 4.51139 0.717413)
(1.16809 4.51139 0.59555)
(1.19444 4.53161 0.717413)
(1.19444 4.53161 0.59555)
(1.22512 4.54432 0.717413)
(1.22512 4.54432 0.59555)
(1.25805 4.54866 0.717413)
(1.25805 4.54866 0.59555)
(1.29098 4.54432 0.717413)
(1.29098 4.54432 0.59555)
(1.32166 4.53161 0.717413)
(1.32166 4.53161 0.59555)
(-1.31806 8.06262 0.530343)
(-1.21683 8.0588 0.517735)
(-1.22066 8.06262 0.530343)
(-1.19761 8.13055 0.517735)
(-1.20283 8.12915 0.530343)
(-1.25013 8.18307 0.517735)
(-1.25153 8.17785 0.530343)
(-1.28719 8.17785 0.530343)
(-1.32189 8.16385 0.517735)
(-1.33589 8.12915 0.530343)
(-1.34111 8.0921 0.517735)
(-1.33589 8.0935 0.530343)
(1.30676 8.06262 0.530343)
(1.20935 8.06262 0.530343)
(1.20553 8.0588 0.517735)
(1.19152 8.12915 0.530343)
(1.1863 8.13055 0.517735)
(1.24023 8.17785 0.530343)
(1.23883 8.18307 0.517735)
(1.27588 8.17785 0.530343)
(1.31058 8.16385 0.517735)
(1.32458 8.12915 0.530343)
(1.32458 8.0935 0.530343)
(1.3298 8.0921 0.517735)
(-1.28719 4.48796 0.530343)
(-1.22066 4.47013 0.530343)
(-1.21683 4.47396 0.517735)
(-1.20283 4.4036 0.530343)
(-1.19761 4.4022 0.517735)
(-1.25153 4.3549 0.530343)
(-1.25013 4.34968 0.517735)
(-1.28859 4.34968 0.517735)
(-1.31806 4.37273 0.530343)
(-1.33589 4.43926 0.530343)
(-1.34111 4.44066 0.517735)
(1.27588 4.48796 0.530343)
(1.20553 4.47396 0.517735)
(1.20935 4.47013 0.530343)
(1.1863 4.4022 0.517735)
(1.19152 4.4036 0.530343)
(1.23883 4.34968 0.517735)
(1.24023 4.3549 0.530343)
(1.27728 4.34968 0.517735)
(1.30675 4.37273 0.530343)
(1.3298 4.44066 0.517735)
(1.32458 4.43926 0.530343)
(-1.22983 8.11769 0.614774)
(-1.27572 8.07179 0.614774)
(-1.22983 8.11769 0.698189)
(-1.27572 8.07179 0.698189)
(1.21852 8.11769 0.614774)
(1.26441 8.07179 0.614774)
(1.21852 8.11769 0.698189)
(1.26441 8.07179 0.698189)
(-1.22983 4.41507 0.614774)
(-1.27572 4.46096 0.614774)
(-1.22983 4.41507 0.698189)
(-1.27572 4.46096 0.698189)
(1.21852 4.41507 0.614774)
(1.26441 4.46096 0.614774)
(1.21852 4.41507 0.698189)
(1.26441 4.46096 0.698189)
)


// edges:

572
(
(114 115)
(116 117)
(118 119)
(120 121)
(122 123)
(124 125)
(126 127)
(128 129)
(130 131)
(0 132)
(133 0)
(0 82)
(1 134)
(83 1)
(1 135)
(2 84)
(136 2)
(2 137)
(3 138)
(85 3)
(3 139)
(140 141)
(142 143)
(141 134)
(144 145)
(146 147)
(145 4)
(5 146)
(4 6)
(7 5)
(6 148)
(149 7)
(148 150)
(151 149)
(150 152)
(153 151)
(152 140)
(143 153)
(133 135)
(86 154)
(130 86)
(87 155)
(87 120)
(86 156)
(157 87)
(156 88)
(127 88)
(89 157)
(158 89)
(89 118)
(88 159)
(139 137)
(144 136)
(138 147)
(132 142)
(160 161)
(162 163)
(164 165)
(166 167)
(168 169)
(170 171)
(172 173)
(174 175)
(176 177)
(8 178)
(179 8)
(90 8)
(9 91)
(180 9)
(181 9)
(10 182)
(92 10)
(183 10)
(11 93)
(184 11)
(185 11)
(186 187)
(188 189)
(180 186)
(190 191)
(192 193)
(12 190)
(193 13)
(14 12)
(13 15)
(194 14)
(15 195)
(196 194)
(195 197)
(198 196)
(197 199)
(187 198)
(199 188)
(181 178)
(200 94)
(94 177)
(201 95)
(167 95)
(202 94)
(95 203)
(96 202)
(96 172)
(203 97)
(97 204)
(165 97)
(205 96)
(183 185)
(182 191)
(192 184)
(189 179)
(206 207)
(208 209)
(210 211)
(212 213)
(214 215)
(216 217)
(218 219)
(220 221)
(222 223)
(16 224)
(225 16)
(98 16)
(17 99)
(226 17)
(227 17)
(18 228)
(100 18)
(229 18)
(19 101)
(230 19)
(231 19)
(232 233)
(234 235)
(226 232)
(236 237)
(238 239)
(20 236)
(239 21)
(22 20)
(21 23)
(240 22)
(23 241)
(242 240)
(241 243)
(244 242)
(243 245)
(233 244)
(245 234)
(227 224)
(246 102)
(102 223)
(247 103)
(213 103)
(248 102)
(103 249)
(104 248)
(104 218)
(249 105)
(105 250)
(211 105)
(251 104)
(229 231)
(228 237)
(238 230)
(235 225)
(252 253)
(254 255)
(256 257)
(258 259)
(260 261)
(262 263)
(264 265)
(266 267)
(268 269)
(24 270)
(271 24)
(24 106)
(25 272)
(107 25)
(25 273)
(26 108)
(274 26)
(26 275)
(27 276)
(109 27)
(27 277)
(278 279)
(280 281)
(279 272)
(282 283)
(284 285)
(283 28)
(29 284)
(28 30)
(31 29)
(30 286)
(287 31)
(286 288)
(289 287)
(288 290)
(291 289)
(290 278)
(281 291)
(271 273)
(110 292)
(268 110)
(111 293)
(111 258)
(110 294)
(295 111)
(294 112)
(265 112)
(113 295)
(296 113)
(113 256)
(112 297)
(277 275)
(282 274)
(276 285)
(270 280)
(298 299)
(300 301)
(299 302)
(303 300)
(302 304)
(305 303)
(304 306)
(307 305)
(306 308)
(309 307)
(308 310)
(311 309)
(310 312)
(313 311)
(312 314)
(315 313)
(314 316)
(317 315)
(316 318)
(319 317)
(318 320)
(321 319)
(320 322)
(323 321)
(322 324)
(325 323)
(324 326)
(327 325)
(326 328)
(329 327)
(328 330)
(331 329)
(330 332)
(333 331)
(332 334)
(335 333)
(334 336)
(337 335)
(336 338)
(339 337)
(338 340)
(341 339)
(340 342)
(343 341)
(342 344)
(345 343)
(344 298)
(301 345)
(346 347)
(348 349)
(350 346)
(349 351)
(352 350)
(351 353)
(354 352)
(353 355)
(356 354)
(355 357)
(358 356)
(357 359)
(360 358)
(359 361)
(362 360)
(361 363)
(364 362)
(363 365)
(366 364)
(365 367)
(368 366)
(367 369)
(370 368)
(369 371)
(372 370)
(371 373)
(374 372)
(373 375)
(376 374)
(375 377)
(378 376)
(377 379)
(380 378)
(379 381)
(382 380)
(381 383)
(384 382)
(383 385)
(386 384)
(385 387)
(388 386)
(387 389)
(390 388)
(389 391)
(392 390)
(391 393)
(347 392)
(393 348)
(394 395)
(396 397)
(398 394)
(397 399)
(400 398)
(399 401)
(402 400)
(401 403)
(404 402)
(403 405)
(406 404)
(405 407)
(408 406)
(407 409)
(410 408)
(409 411)
(412 410)
(411 413)
(414 412)
(413 415)
(416 414)
(415 417)
(418 416)
(417 419)
(420 418)
(419 421)
(422 420)
(421 423)
(424 422)
(423 425)
(426 424)
(425 427)
(428 426)
(427 429)
(430 428)
(429 431)
(432 430)
(431 433)
(434 432)
(433 435)
(436 434)
(435 437)
(438 436)
(437 439)
(440 438)
(439 441)
(395 440)
(441 396)
(442 443)
(444 445)
(443 446)
(447 444)
(446 448)
(449 447)
(448 450)
(451 449)
(450 452)
(453 451)
(452 454)
(455 453)
(454 456)
(457 455)
(456 458)
(459 457)
(458 460)
(461 459)
(460 462)
(463 461)
(462 464)
(465 463)
(464 466)
(467 465)
(466 468)
(469 467)
(468 470)
(471 469)
(470 472)
(473 471)
(472 474)
(475 473)
(474 476)
(477 475)
(476 478)
(479 477)
(478 480)
(481 479)
(480 482)
(483 481)
(482 484)
(485 483)
(484 486)
(487 485)
(486 488)
(489 487)
(488 442)
(445 489)
(32 33)
(34 490)
(33 35)
(36 34)
(35 491)
(492 36)
(491 37)
(38 492)
(37 493)
(494 38)
(493 39)
(40 494)
(39 495)
(496 40)
(495 41)
(497 496)
(41 498)
(42 497)
(498 43)
(499 42)
(43 500)
(501 499)
(500 32)
(490 501)
(502 44)
(45 46)
(44 47)
(48 45)
(47 503)
(504 48)
(503 49)
(50 504)
(49 505)
(506 50)
(505 51)
(52 506)
(51 507)
(508 52)
(507 509)
(53 508)
(509 54)
(510 53)
(54 511)
(55 510)
(511 512)
(513 55)
(512 502)
(46 513)
(56 514)
(57 58)
(514 59)
(60 57)
(59 515)
(516 60)
(515 61)
(62 516)
(61 517)
(518 62)
(517 63)
(64 518)
(63 519)
(520 64)
(519 65)
(521 520)
(65 522)
(66 521)
(522 67)
(68 66)
(67 523)
(524 68)
(523 56)
(58 524)
(70 71)
(525 69)
(71 72)
(73 525)
(72 526)
(527 73)
(526 74)
(75 527)
(74 528)
(529 75)
(528 76)
(77 529)
(76 530)
(531 77)
(530 532)
(78 531)
(532 79)
(533 78)
(79 80)
(81 533)
(80 534)
(535 81)
(534 70)
(69 535)
(536 119)
(537 121)
(538 126)
(539 131)
(82 537)
(155 82)
(539 83)
(84 538)
(159 84)
(536 85)
(83 154)
(83 86)
(87 82)
(88 84)
(85 158)
(85 89)
(164 540)
(166 541)
(173 542)
(176 543)
(541 90)
(90 201)
(91 543)
(542 92)
(92 205)
(93 540)
(200 91)
(94 91)
(90 95)
(92 96)
(204 93)
(97 93)
(210 544)
(212 545)
(219 546)
(222 547)
(545 98)
(98 247)
(99 547)
(546 100)
(100 251)
(101 544)
(246 99)
(102 99)
(98 103)
(100 104)
(250 101)
(105 101)
(548 257)
(549 259)
(550 264)
(551 269)
(106 549)
(293 106)
(551 107)
(108 550)
(297 108)
(548 109)
(107 292)
(107 110)
(111 106)
(112 108)
(109 296)
(109 113)
)

// * * * * * * * * * * * * * * * * * * * * * * * * * * * * * * * * * * * * * //


// ************************************************************************* //
