/*--------------------------------*- C++ -*----------------------------------*\
  =========                 |
  \\      /  F ield         | OpenFOAM: The Open Source CFD Toolbox
   \\    /   O peration     | Website:  https://openfoam.org
    \\  /    A nd           | Version:  12
     \\/     M anipulation  |
\*---------------------------------------------------------------------------*/
FoamFile
{
    format      ascii;
    class       extendedFeatureEdgeMesh;
    location    "constant/extendedFeatureEdgeMesh";
    object      blade3.extendedFeatureEdgeMesh;
}
// * * * * * * * * * * * * * * * * * * * * * * * * * * * * * * * * * * * * * //

// points

348
(
(2.16891 4.40623 0.445888)
(2.21571 4.41575 0.454679)
(2.21711 4.42605 0.472453)
(0.35133 4.38232 0.592578)
(0.306639 4.37034 0.607345)
(0.308117 4.36008 0.625135)
(1.18882 4.40074 0.552917)
(1.18633 4.41039 0.553127)
(1.19032 4.41113 0.558476)
(1.19328 4.40181 0.558531)
(1.19224 4.4018 0.546617)
(1.18933 4.41112 0.54717)
(1.19147 4.39114 0.552693)
(1.19535 4.39226 0.558051)
(1.19437 4.39226 0.546744)
(1.18513 4.42 0.553225)
(1.18768 4.41999 0.54766)
(1.19522 4.38222 0.552373)
(1.19828 4.38373 0.55745)
(1.24121 4.49184 0.548309)
(1.25083 4.49434 0.547473)
(1.25205 4.49083 0.553065)
(1.24279 4.48788 0.554177)
(1.24175 4.48788 0.542263)
(1.25106 4.49082 0.541758)
(1.23164 4.48918 0.549142)
(1.23325 4.48578 0.554701)
(1.23227 4.48577 0.543394)
(1.26039 4.49554 0.546641)
(1.25993 4.49252 0.541339)
(1.22276 4.48542 0.549916)
(1.22472 4.48281 0.555092)
(2.00577 4.39827 0.458369)
(2.09465 4.40285 0.449476)
(2.01167 4.39658 0.459499)
(2.10704 4.40148 0.44937)
(1.208 4.3674 0.551272)
(1.20104 4.37451 0.551872)
(1.20419 4.3769 0.557293)
(1.2114 4.3703 0.556976)
(1.21037 4.37029 0.545063)
(1.20321 4.37689 0.545986)
(1.21508 4.36041 0.550661)
(1.21795 4.36309 0.556106)
(1.21697 4.36308 0.5448)
(1.19736 4.38373 0.546842)
(1.22276 4.35457 0.549997)
(1.22473 4.35719 0.555169)
(1.27957 4.34815 0.545066)
(1.26996 4.34565 0.545903)
(1.26972 4.34916 0.551617)
(1.27903 4.35211 0.551113)
(1.278 4.3521 0.539199)
(1.26874 4.34916 0.540311)
(1.28914 4.35081 0.544234)
(1.28852 4.35422 0.549982)
(1.28753 4.35421 0.538675)
(1.26039 4.34445 0.546735)
(1.25993 4.34746 0.541428)
(1.29802 4.35457 0.54346)
(1.29698 4.35718 0.548893)
(1.20799 4.47259 0.551207)
(1.21508 4.47958 0.550587)
(1.21795 4.47691 0.556036)
(1.2114 4.4697 0.556915)
(1.21036 4.46969 0.545001)
(1.21696 4.4769 0.544729)
(1.20103 4.46548 0.551816)
(1.20419 4.4631 0.557239)
(1.2032 4.46309 0.545933)
(1.2238 4.4828 0.544483)
(1.19521 4.45777 0.552326)
(1.19828 4.45626 0.557405)
(1.31469 4.47388 0.541937)
(1.32615 4.46992 0.540945)
(1.3247 4.46719 0.547577)
(1.31253 4.47089 0.548404)
(1.31145 4.47088 0.535944)
(1.32358 4.46718 0.534666)
(1.30594 4.47974 0.542694)
(1.30408 4.47705 0.548587)
(1.30309 4.47705 0.537213)
(1.34057 4.46866 0.539693)
(1.33909 4.46645 0.533323)
(1.29802 4.48541 0.543379)
(1.29698 4.48281 0.548815)
(1.24122 4.34815 0.548398)
(1.23165 4.35081 0.549228)
(1.23325 4.35422 0.554782)
(1.24279 4.35211 0.554261)
(1.24175 4.3521 0.542347)
(1.23227 4.35421 0.543476)
(1.25083 4.34565 0.547565)
(1.25205 4.34916 0.553152)
(1.25107 4.34916 0.541846)
(1.22381 4.35718 0.544561)
(1.26086 4.34747 0.552037)
(1.31483 4.36666 0.541992)
(1.30596 4.36032 0.542766)
(1.3041 4.363 0.548657)
(1.31266 4.36964 0.548455)
(1.31158 4.36964 0.535996)
(1.30311 4.363 0.537282)
(1.32659 4.37194 0.540967)
(1.32513 4.37462 0.547597)
(1.29606 4.35718 0.538284)
(1.34162 4.37577 0.53966)
(1.34122 4.37784 0.546193)
(1.18882 4.43925 0.552893)
(1.19147 4.44885 0.552657)
(1.19535 4.44773 0.558016)
(1.19328 4.43819 0.558508)
(1.19224 4.43818 0.546595)
(1.19437 4.44773 0.54671)
(1.18633 4.4296 0.553116)
(1.19032 4.42887 0.558465)
(1.18933 4.42886 0.547159)
(1.19736 4.45626 0.546797)
(1.1886 4.42 0.558269)
(1.27957 4.49184 0.544977)
(1.28914 4.48918 0.544148)
(1.28851 4.48577 0.5499)
(1.27903 4.48788 0.551029)
(1.278 4.48788 0.539115)
(1.28753 4.48577 0.538594)
(1.26996 4.49434 0.545811)
(1.26972 4.49083 0.55153)
(1.26874 4.49082 0.540223)
(1.29606 4.4828 0.538206)
(1.26085 4.49252 0.551947)
(2.20215 4.41093 0.448204)
(2.15079 4.40753 0.446512)
(2.2187 4.42072 0.463353)
(2.20444 4.43265 0.481271)
(2.17112 4.44166 0.489442)
(2.10779 4.45423 0.49689)
(1.75997 4.51003 0.514788)
(1.88767 4.49035 0.509593)
(2.00938 4.47098 0.503611)
(1.64873 4.52685 0.519009)
(1.35765 4.47048 0.538208)
(1.37648 4.47529 0.536569)
(1.39603 4.48286 0.534866)
(1.35696 4.46857 0.531832)
(1.37623 4.47341 0.530236)
(1.396 4.4808 0.528607)
(1.34021 4.46645 0.546225)
(1.35807 4.46858 0.54461)
(1.41526 4.49297 0.53319)
(1.41533 4.49059 0.527017)
(1.37955 4.38076 0.530005)
(1.35892 4.37976 0.531717)
(1.3401 4.37783 0.53329)
(1.35967 4.37814 0.53809)
(1.4516 4.51477 0.536007)
(1.43455 4.50238 0.537585)
(1.43334 4.50515 0.531612)
(1.4503 4.51796 0.53013)
(1.4678 4.52614 0.534509)
(1.46642 4.52972 0.528723)
(1.4335 4.50237 0.525523)
(1.45057 4.51476 0.524121)
(1.46678 4.52613 0.52279)
(1.48339 4.53487 0.533072)
(1.48195 4.53874 0.527368)
(1.48238 4.53486 0.521507)
(1.52691 4.5394 0.529799)
(1.50027 4.53951 0.531612)
(1.4988 4.54354 0.525997)
(1.52545 4.54347 0.524351)
(1.57345 4.53405 0.527241)
(1.57205 4.53805 0.522124)
(1.49927 4.53952 0.520213)
(1.52594 4.53948 0.51869)
(1.57252 4.53436 0.51668)
(1.65002 4.52299 0.523546)
(1.64915 4.52375 0.513927)
(1.33528 4.44125 0.571731)
(1.33829 4.43175 0.571604)
(1.33508 4.43083 0.577423)
(1.33165 4.43997 0.577874)
(1.33113 4.43997 0.565927)
(1.33458 4.43082 0.566085)
(1.3321 4.45069 0.571866)
(1.32901 4.44939 0.57768)
(1.32852 4.44939 0.566342)
(1.34001 4.42222 0.571532)
(1.33677 4.42206 0.566343)
(1.32787 4.45939 0.572047)
(1.32557 4.45775 0.577476)
(1.28774 4.34743 0.573821)
(1.27825 4.34442 0.574233)
(1.27758 4.34788 0.579941)
(1.28673 4.35133 0.579849)
(1.28621 4.35133 0.567901)
(1.27709 4.34788 0.568603)
(1.29718 4.35061 0.573411)
(1.29612 4.35395 0.579136)
(1.29563 4.35395 0.567797)
(1.26874 4.3427 0.574646)
(1.26834 4.34571 0.569333)
(1.30587 4.35485 0.573033)
(1.30446 4.35738 0.578423)
(0.514035 4.39913 0.583829)
(0.425137 4.38972 0.586518)
(0.508245 4.40051 0.585716)
(0.412781 4.39042 0.588021)
(1.31427 4.4735 0.572632)
(1.32162 4.46678 0.572315)
(1.31933 4.46425 0.578095)
(1.31179 4.47045 0.578725)
(1.31128 4.47044 0.566778)
(1.31884 4.46425 0.566757)
(1.3068 4.48009 0.572954)
(1.30481 4.47729 0.578721)
(1.30432 4.47729 0.567383)
(1.32511 4.45774 0.566837)
(1.29879 4.4855 0.573299)
(1.29765 4.48282 0.578679)
(1.24155 4.48883 0.57578)
(1.25104 4.49184 0.575367)
(1.25221 4.48838 0.580998)
(1.24308 4.48493 0.581699)
(1.24257 4.48493 0.569752)
(1.25172 4.48838 0.569659)
(1.23212 4.48565 0.57619)
(1.23366 4.48231 0.581803)
(1.23317 4.48231 0.570465)
(1.26056 4.49356 0.574954)
(1.26049 4.49055 0.569629)
(1.22343 4.48141 0.576568)
(1.2253 4.47889 0.581817)
(1.31996 4.36846 0.572418)
(1.31325 4.3611 0.572711)
(1.31097 4.36364 0.578489)
(1.31717 4.3712 0.578523)
(1.31666 4.3712 0.566575)
(1.31048 4.36364 0.567151)
(1.32655 4.37594 0.57213)
(1.324 4.37818 0.57792)
(1.32351 4.37818 0.566581)
(1.30399 4.35737 0.567784)
(1.33196 4.38396 0.571893)
(1.3295 4.38532 0.577328)
(1.21319 4.36137 0.577049)
(1.2015 4.3647 0.577554)
(1.20365 4.36754 0.583946)
(1.216 4.36451 0.583185)
(1.21546 4.36451 0.57069)
(1.20309 4.36754 0.570999)
(1.22227 4.356 0.576657)
(1.22473 4.35881 0.582263)
(1.22423 4.35881 0.570857)
(1.18699 4.36517 0.578183)
(1.18752 4.36743 0.571678)
(1.23051 4.35076 0.576301)
(1.2321 4.35345 0.581561)
(1.27996 4.49091 0.574114)
(1.28969 4.48878 0.573693)
(1.289 4.48532 0.579404)
(1.27938 4.48691 0.580125)
(1.27886 4.4869 0.568178)
(1.28851 4.48531 0.568065)
(1.2702 4.49288 0.574536)
(1.26991 4.48934 0.58023)
(1.26942 4.48934 0.568892)
(1.29719 4.48281 0.56804)
(1.26095 4.49055 0.580267)
(1.20725 4.46843 0.577273)
(1.21579 4.47524 0.576901)
(1.21854 4.47269 0.582496)
(1.2104 4.4656 0.583396)
(1.20985 4.46559 0.570902)
(1.21804 4.47269 0.57109)
(1.19576 4.46251 0.577773)
(1.19821 4.45995 0.584153)
(1.22484 4.47888 0.571178)
(1.18092 4.45787 0.578418)
(1.18227 4.45586 0.584842)
(1.33736 4.4028 0.571653)
(1.33523 4.39306 0.571748)
(1.33202 4.394 0.577567)
(1.33362 4.40365 0.5778)
(1.3331 4.40364 0.565853)
(1.33152 4.394 0.566229)
(1.33933 4.41257 0.571564)
(1.33604 4.41311 0.577387)
(1.33555 4.41311 0.566049)
(1.32904 4.38532 0.56669)
(1.33723 4.42206 0.576982)
(1.24933 4.34535 0.575487)
(1.23961 4.34749 0.575908)
(1.24079 4.35095 0.581535)
(1.25044 4.34936 0.581423)
(1.24992 4.34936 0.569475)
(1.24029 4.35094 0.570197)
(1.25909 4.34338 0.575064)
(1.25988 4.34692 0.580709)
(1.25939 4.34692 0.569371)
(1.23164 4.35345 0.570922)
(1.26881 4.34571 0.579972)
(0.31897 4.37584 0.599174)
(0.369421 4.382 0.590847)
(0.305078 4.36526 0.616325)
(0.322158 4.35422 0.632229)
(0.356695 4.34707 0.636001)
(0.421041 4.33797 0.635163)
(0.770766 4.30111 0.607767)
(0.642587 4.31384 0.619189)
(0.520259 4.32659 0.629053)
(0.882363 4.29034 0.597516)
(1.17 4.36242 0.578921)
(1.15139 4.3566 0.579729)
(1.13223 4.34797 0.580563)
(1.16975 4.36433 0.572512)
(1.15072 4.35846 0.573419)
(1.13134 4.35 0.574354)
(1.18808 4.36743 0.584617)
(1.1703 4.36434 0.585326)
(1.11352 4.33683 0.581377)
(1.11253 4.33918 0.575268)
(1.14238 4.45079 0.573752)
(1.16298 4.4529 0.572778)
(1.18171 4.45586 0.571902)
(1.16297 4.45452 0.579197)
(1.07908 4.31312 0.588848)
(1.0955 4.32643 0.58822)
(1.09608 4.32369 0.582137)
(1.07978 4.30998 0.582848)
(1.06347 4.30089 0.589445)
(1.06428 4.29736 0.583524)
(1.09498 4.32642 0.576125)
(1.07857 4.31312 0.576929)
(1.06296 4.30088 0.577693)
(1.04832 4.29132 0.590027)
(1.04922 4.28751 0.58418)
(1.04782 4.29132 0.57843)
(1.00505 4.28444 0.592414)
(1.03167 4.28577 0.590759)
(1.03262 4.28179 0.584997)
(1.00601 4.28042 0.586818)
(0.958348 4.28725 0.595916)
(0.95929 4.2833 0.590655)
(1.03118 4.28576 0.579329)
(1.00458 4.28434 0.581273)
(0.957923 4.28693 0.585323)
(0.881458 4.29415 0.602188)
(0.881123 4.29338 0.592535)
)

// edges

298
(
(6 7)
(8 9)
(10 11)
(12 6)
(9 13)
(14 10)
(7 15)
(11 16)
(12 17)
(13 18)
(19 20)
(21 22)
(23 24)
(25 19)
(22 26)
(27 23)
(20 28)
(24 29)
(25 30)
(26 31)
(32 33)
(34 35)
(36 37)
(38 39)
(40 41)
(42 36)
(39 43)
(44 40)
(37 17)
(41 45)
(42 46)
(43 47)
(48 49)
(50 51)
(52 53)
(54 48)
(51 55)
(56 52)
(49 57)
(53 58)
(54 59)
(55 60)
(61 62)
(63 64)
(65 66)
(67 61)
(64 68)
(69 65)
(62 30)
(66 70)
(67 71)
(68 72)
(73 74)
(75 76)
(77 78)
(79 73)
(76 80)
(81 77)
(74 82)
(78 83)
(79 84)
(80 85)
(86 87)
(88 89)
(90 91)
(92 86)
(89 93)
(94 90)
(87 46)
(91 95)
(92 57)
(93 96)
(97 98)
(99 100)
(101 102)
(103 97)
(100 104)
(98 59)
(102 105)
(103 106)
(104 107)
(108 109)
(110 111)
(112 113)
(114 108)
(111 115)
(116 112)
(109 71)
(113 117)
(114 15)
(115 118)
(119 120)
(121 122)
(123 124)
(125 119)
(122 126)
(127 123)
(120 84)
(124 128)
(125 28)
(126 129)
(130 0)
(131 0)
(1 130)
(0 35)
(131 33)
(1 132)
(133 2)
(134 133)
(2 132)
(134 135)
(136 137)
(137 138)
(138 135)
(136 139)
(140 141)
(141 142)
(143 144)
(144 145)
(146 147)
(142 148)
(145 149)
(140 82)
(150 151)
(152 151)
(153 106)
(154 155)
(156 157)
(158 154)
(157 159)
(160 161)
(161 162)
(158 163)
(159 164)
(162 165)
(160 149)
(156 148)
(166 167)
(168 169)
(170 166)
(169 171)
(172 173)
(173 174)
(163 167)
(170 175)
(171 139)
(174 176)
(172 165)
(168 164)
(177 178)
(179 180)
(181 182)
(183 177)
(180 184)
(185 181)
(178 186)
(182 187)
(183 188)
(184 189)
(190 191)
(192 193)
(194 195)
(196 190)
(193 197)
(198 194)
(191 199)
(195 200)
(196 201)
(197 202)
(203 204)
(205 206)
(207 208)
(209 210)
(211 212)
(213 207)
(210 214)
(215 211)
(208 188)
(212 216)
(213 217)
(214 218)
(219 220)
(221 222)
(223 224)
(225 219)
(222 226)
(227 223)
(220 228)
(224 229)
(225 230)
(226 231)
(232 233)
(234 235)
(236 237)
(238 232)
(235 239)
(240 236)
(233 201)
(237 241)
(238 242)
(239 243)
(244 245)
(246 247)
(248 249)
(250 244)
(247 251)
(252 248)
(245 253)
(249 254)
(250 255)
(251 256)
(257 258)
(259 260)
(261 262)
(263 257)
(260 264)
(265 261)
(258 217)
(262 266)
(263 228)
(264 267)
(268 269)
(270 271)
(272 273)
(274 268)
(271 275)
(269 230)
(273 276)
(274 277)
(275 278)
(279 280)
(281 282)
(283 284)
(285 279)
(282 286)
(287 283)
(280 242)
(284 288)
(285 186)
(286 289)
(290 291)
(292 293)
(294 295)
(296 290)
(293 297)
(298 294)
(291 255)
(295 299)
(296 199)
(297 300)
(301 3)
(302 3)
(4 301)
(3 206)
(302 204)
(4 303)
(304 5)
(305 304)
(5 303)
(305 306)
(307 308)
(308 309)
(309 306)
(307 310)
(311 312)
(312 313)
(314 315)
(315 316)
(317 318)
(313 319)
(316 320)
(311 253)
(321 322)
(323 322)
(324 277)
(325 326)
(327 328)
(329 325)
(328 330)
(331 332)
(332 333)
(329 334)
(330 335)
(333 336)
(331 320)
(327 319)
(337 338)
(339 340)
(341 337)
(340 342)
(343 344)
(344 345)
(334 338)
(341 346)
(342 310)
(345 347)
(343 336)
(339 335)
)

// concaveStart mixedStart nonFeatureStart
0 6 6
// internalStart flatStart openStart multipleStart
0 298 298 298
// normals

594
(
(0.769457 0.211606 -0.602626)
(0.844497 0.207072 0.493909)
(0.73987 0.231433 -0.63169)
(0.327146 0.0984672 -0.93983)
(0.854772 0.239503 0.460439)
(0.453059 0.0888076 0.887046)
(0.743081 0.219872 -0.63205)
(0.858116 0.226094 0.460997)
(0.773356 0.198371 -0.602138)
(0.287252 0.110304 -0.951483)
(0.847462 0.195438 0.49357)
(0.479276 0.11839 0.869642)
(0.819434 0.107774 -0.56295)
(0.882654 0.105232 0.458092)
(0.899905 0.145459 0.411111)
(0.498651 0.0453665 0.865615)
(0.842593 0.339193 0.418312)
(0.730629 0.328617 -0.598491)
(0.772938 0.304405 -0.55669)
(0.307937 0.171535 -0.935815)
(0.165017 -0.819011 -0.549536)
(0.254935 -0.798255 0.545708)
(0.182012 -0.792148 -0.582558)
(0.0200883 -0.407829 -0.912837)
(0.284408 -0.811385 0.510654)
(0.167786 -0.37402 0.912117)
(0.170526 -0.795367 -0.581646)
(0.271139 -0.814664 0.512647)
(0.151927 -0.82287 -0.547543)
(0.0306216 -0.369076 -0.928895)
(0.243352 -0.801236 0.546627)
(0.196006 -0.401662 0.894567)
(0.0653063 -0.865413 -0.496785)
(0.150642 -0.839367 0.522274)
(0.186877 -0.860674 0.47362)
(0.123044 -0.421312 0.89853)
(0.380036 -0.802927 0.459218)
(0.28163 -0.780005 -0.558818)
(0.261397 -0.818519 -0.511564)
(0.0931005 -0.388341 -0.916801)
(0.100722 -0.0231283 0.994646)
(0.0616288 0.491547 0.868668)
(0.0456648 0.660655 0.749299)
(-0.0298534 0.980735 0.193049)
(0.554597 0.592573 -0.584192)
(0.634932 0.578688 0.511841)
(0.518745 0.596258 -0.612683)
(0.223449 0.288818 -0.930943)
(0.627298 0.613298 0.479962)
(0.359103 0.264262 0.895104)
(0.527267 0.587877 -0.613506)
(0.636864 0.603355 0.479966)
(0.564536 0.583053 -0.58425)
(0.182816 0.279715 -0.942517)
(0.643279 0.570121 0.511032)
(0.366875 0.303717 0.879294)
(0.650098 0.525856 -0.548496)
(0.718289 0.511058 0.472103)
(0.712649 0.556512 0.427112)
(0.420009 0.250317 0.872315)
(0.566562 0.695394 0.442079)
(0.462687 0.674378 -0.575444)
(0.51192 0.67268 -0.534265)
(0.170453 0.342368 -0.923975)
(-0.257363 0.818376 -0.513834)
(-0.15707 0.798951 0.580522)
(-0.279859 0.791395 -0.543482)
(-0.177255 0.406677 -0.896211)
(-0.192172 0.81205 0.55104)
(-0.00803106 0.375165 0.926923)
(-0.268377 0.794618 -0.54457)
(-0.178809 0.81532 0.550709)
(-0.244106 0.822244 -0.514127)
(-0.190351 0.367952 -0.910153)
(-0.145547 0.80192 0.579431)
(-0.0388611 0.402767 0.914477)
(-0.150122 0.864765 -0.479213)
(-0.0584602 0.840028 0.539385)
(-0.102498 0.861256 0.497727)
(0.033694 0.422429 0.90577)
(-0.295262 0.803549 0.516845)
(-0.37386 0.779362 -0.502816)
(-0.345817 0.817891 -0.459853)
(-0.249852 0.38721 -0.887492)
(0.544506 -0.603388 -0.582612)
(0.625102 -0.587895 0.513447)
(0.545471 -0.570179 -0.614295)
(0.209736 -0.303753 -0.929379)
(0.656786 -0.58307 0.478185)
(0.342584 -0.279728 0.896877)
(0.537134 -0.57872 -0.613653)
(0.646983 -0.592595 0.479838)
(0.53511 -0.613315 -0.580949)
(0.199373 -0.264268 -0.943617)
(0.616559 -0.596281 0.514106)
(0.38061 -0.288846 0.878467)
(0.481821 -0.695425 -0.533135)
(0.554942 -0.674393 0.487066)
(0.596343 -0.672697 0.438011)
(0.327208 -0.342385 0.880743)
(0.734913 -0.52588 0.428198)
(0.626096 -0.511076 -0.588902)
(0.6283 -0.556573 -0.543567)
(0.263272 -0.250339 -0.931675)
(-0.328942 -0.845641 -0.420343)
(-0.234693 -0.812251 0.534011)
(-0.284964 -0.829889 -0.479666)
(-0.203189 -0.47706 -0.85506)
(-0.213655 -0.860255 0.462939)
(-0.0354798 -0.428336 0.902923)
(-0.512098 -0.701266 -0.495965)
(-0.423691 -0.706459 0.566924)
(-0.52261 -0.701613 -0.484373)
(-0.279448 -0.356298 -0.891605)
(-0.425574 -0.695586 0.578833)
(-0.138406 -0.375918 0.916258)
(-0.110147 -0.93989 -0.323225)
(-0.0434167 -0.909049 0.414422)
(-0.0158534 -0.943374 0.331351)
(0.0477092 -0.53554 0.843161)
(-0.461748 -0.708743 0.53336)
(-0.536926 -0.69095 -0.484045)
(-0.573365 -0.690521 -0.440946)
(-0.316567 -0.356088 -0.879197)
(0.178723 0.814679 -0.551685)
(0.268305 0.795356 0.543526)
(0.145457 0.801238 -0.580396)
(0.0388147 0.401641 -0.914974)
(0.24411 0.822856 0.513146)
(0.190352 0.369074 0.909698)
(0.157067 0.798247 -0.581491)
(0.257346 0.81903 0.512798)
(0.192136 0.811371 -0.552051)
(0.00800964 0.374024 -0.927384)
(0.279812 0.792126 0.54244)
(0.177223 0.4078 0.895707)
(0.295215 0.802908 -0.517868)
(0.373813 0.779981 0.50189)
(0.345739 0.818494 0.458838)
(0.249818 0.388346 0.887005)
(0.150074 0.865369 0.478136)
(0.0584103 0.839352 -0.540442)
(0.102447 0.860636 -0.498809)
(-0.0337031 0.42132 -0.906285)
(-0.536479 0.690754 -0.484818)
(-0.440259 0.686108 0.579161)
(-0.539602 0.680823 -0.495288)
(-0.304804 0.366392 -0.87912)
(-0.451532 0.686343 0.570134)
(-0.132195 0.348373 0.927988)
(-0.392133 0.778044 -0.490794)
(-0.324173 0.815118 0.480099)
(-0.361633 0.833918 -0.416897)
(-0.222631 0.404668 -0.88695)
(-0.55016 0.706385 -0.445358)
(-0.448636 0.688581 0.569722)
(-0.492053 0.688099 0.533295)
(-0.161879 0.354718 0.920853)
(-0.203638 0.916359 0.344698)
(-0.258666 0.874422 -0.410461)
(-0.21234 0.927899 -0.306457)
(-0.174162 0.500933 -0.847782)
(0.765771 -0.226162 -0.602034)
(0.840907 -0.219927 0.494478)
(0.749667 -0.195512 -0.632277)
(0.322126 -0.118428 -0.93926)
(0.865588 -0.198416 0.459771)
(0.447021 -0.110322 0.887695)
(0.746693 -0.207121 -0.632099)
(0.86182 -0.211646 0.460947)
(0.762557 -0.239498 -0.600956)
(0.293309 -0.0887972 -0.951885)
(0.837685 -0.231472 0.494676)
(0.484285 -0.0984946 0.869349)
(0.757848 -0.339221 -0.557311)
(0.822869 -0.328642 0.463552)
(0.85733 -0.304437 0.415095)
(0.464685 -0.171555 0.868698)
(0.904219 -0.107819 0.413234)
(0.790429 -0.105282 -0.603438)
(0.815528 -0.145524 -0.560122)
(0.341933 -0.0454078 -0.938627)
(-0.271082 -0.815322 -0.511629)
(-0.170472 -0.794643 0.58265)
(-0.243317 -0.801945 -0.545602)
(-0.195984 -0.402756 -0.894079)
(-0.151868 -0.822192 0.548577)
(-0.0305943 -0.367935 0.929348)
(-0.254861 -0.798974 -0.544688)
(-0.164952 -0.8184 0.550465)
(-0.28431 -0.812053 -0.509644)
(-0.167736 -0.375164 -0.911656)
(-0.182003 -0.791411 0.583561)
(-0.0200891 -0.406684 0.913348)
(-0.380047 -0.803538 -0.458138)
(-0.281623 -0.779301 0.559802)
(-0.261356 -0.817933 0.512522)
(-0.0930809 -0.38722 0.917277)
(-0.0652998 -0.864795 0.497861)
(-0.150637 -0.84002 -0.521224)
(-0.186883 -0.861274 -0.472527)
(-0.12305 -0.422438 -0.898)
(-0.1295 0.98213 -0.136567)
(-0.00635953 -0.405073 0.914262)
(0.00123084 -0.41785 0.908515)
(0.0444697 0.145314 0.988386)
(-0.163629 0.924266 -0.344902)
(-0.0557579 -0.741563 0.668562)
(-0.0721381 0.994605 0.0745456)
(0.0328664 0.222584 0.974359)
(0.0829223 -0.422846 0.9024)
(-0.0912606 -0.850068 0.518706)
(-0.163353 0.879098 -0.447775)
(-0.142958 0.682622 -0.716652)
(-0.151231 -0.883054 0.444235)
(-0.142674 0.321389 -0.936137)
(-0.174479 -0.932457 0.316357)
(-0.148129 0.842073 -0.518625)
(-0.122001 -0.865783 0.48532)
(-0.175536 -0.973077 0.149361)
(-0.137259 -0.108149 -0.984613)
(-0.139086 -0.724192 -0.675426)
(-0.133338 -0.944452 0.300385)
(-0.139751 -0.646269 -0.750204)
(-0.147974 -0.976998 0.153551)
(-0.145984 -0.52001 -0.841593)
(-0.163509 -0.984723 0.0598731)
(-0.11912 -0.895581 0.428655)
(-0.140361 -0.773292 -0.618318)
(0.212752 -0.932637 -0.29142)
(0.260132 -0.928216 0.265982)
(0.319534 -0.895264 -0.310483)
(0.367397 -0.883974 0.289154)
(0.25511 -0.933395 0.252375)
(0.224568 -0.657636 0.719085)
(0.35708 -0.899027 0.253464)
(0.284161 -0.593967 0.752633)
(0.00795123 -0.646544 -0.762835)
(0.0872918 -0.953246 -0.289313)
(0.411878 -0.841491 -0.349642)
(0.462221 -0.82558 0.32368)
(0.452085 -0.847955 0.276752)
(0.326773 -0.516878 0.791237)
(0.125663 -0.953904 0.272535)
(0.0737419 -0.946151 -0.315214)
(-0.02889 0.975662 0.217368)
(0.0209848 0.734245 0.67856)
(-0.000816866 0.635818 0.771839)
(-0.0777554 0.963881 0.254729)
(-0.146618 0.960524 -0.236427)
(-0.0950153 0.940364 0.326631)
(0.47906 -0.722638 -0.498293)
(0.234567 -0.433527 -0.870076)
(0.514648 -0.733015 -0.444777)
(0.573299 -0.712436 0.404677)
(0.447638 -0.70918 -0.544687)
(0.190155 -0.389454 -0.901203)
(0.482258 -0.720734 -0.497966)
(0.550183 -0.699688 0.45578)
(0.568276 -0.742597 0.354418)
(0.35025 -0.385844 0.853492)
(0.545669 -0.729442 0.412505)
(0.318743 -0.351227 0.880365)
(0.119253 -0.365158 -0.923276)
(0.354631 -0.729829 -0.584454)
(0.38319 -0.742246 -0.549761)
(0.464376 -0.722553 0.512125)
(0.458028 -0.74845 0.479618)
(0.262839 -0.337074 0.904045)
(0.354272 -0.442016 0.824083)
(0.535088 -0.786166 0.30923)
(0.542578 -0.758486 0.360982)
(0.489336 -0.77742 -0.395181)
(-0.0436189 -0.805844 -0.590519)
(-0.0648201 -0.36153 -0.930105)
(-0.0378808 -0.816339 -0.57633)
(0.0333317 -0.816128 0.576909)
(-0.124084 -0.797427 -0.590519)
(-0.0918289 -0.354016 -0.93072)
(-0.12151 -0.81042 -0.573109)
(-0.0696435 -0.828423 0.555756)
(0.0317789 -0.819089 0.572785)
(0.0525925 -0.368466 0.928152)
(-0.0654127 -0.818817 0.570315)
(-0.0034871 -0.392647 0.919683)
(0.0184788 -0.360576 -0.932547)
(0.162545 -0.780851 -0.6032)
(-0.0939214 -0.33724 -0.936722)
(-0.141531 -0.773324 -0.618011)
(-0.140409 -0.797802 -0.586342)
(-0.103792 -0.852605 0.512144)
(-0.0948142 -0.827698 0.553105)
(-0.0276281 -0.433029 0.900956)
(0.166047 -0.345932 0.92345)
(0.261161 -0.796184 0.54579)
(0.268424 -0.780119 0.565122)
(0.178629 -0.792764 -0.582766)
(-0.828363 -0.256183 -0.498181)
(-0.761008 -0.249558 0.598822)
(-0.801775 -0.274534 -0.530836)
(-0.440226 -0.121243 -0.889663)
(-0.773723 -0.282597 0.567003)
(-0.328935 -0.108095 0.938146)
(-0.805627 -0.26317 -0.530761)
(-0.777709 -0.269455 0.567946)
(-0.832896 -0.243165 -0.497147)
(-0.401607 -0.130977 -0.906398)
(-0.764617 -0.238109 0.598887)
(-0.355524 -0.139186 0.924246)
(-0.878374 -0.154962 -0.452156)
(-0.808898 -0.150097 0.568467)
(-0.829901 -0.191504 0.524014)
(-0.37921 -0.0673515 0.922856)
(-0.761751 -0.381781 0.523431)
(-0.783062 -0.370889 -0.499256)
(-0.820871 -0.348748 -0.452267)
(-0.416749 -0.19314 -0.888267)
(-0.278871 0.805865 -0.522315)
(-0.224991 0.786407 0.575276)
(-0.29858 0.77785 -0.552992)
(-0.160171 0.400997 -0.901968)
(-0.259425 0.797734 0.544352)
(-0.068305 0.369547 0.926698)
(-0.287242 0.781697 -0.553572)
(-0.24627 0.801727 0.544597)
(-0.265859 0.810413 -0.522064)
(-0.170547 0.361687 -0.916568)
(-0.213607 0.79 0.574694)
(-0.100029 0.395504 0.913001)
(-0.175915 0.857793 -0.482954)
(-0.127083 0.83293 0.538589)
(-0.170382 0.851965 0.495101)
(-0.0283647 0.419111 0.907492)
(-0.360414 0.783866 0.505625)
(-0.393494 0.760522 -0.516496)
(-0.369406 0.800378 -0.472159)
(-0.231903 0.377599 -0.89646)
(0.0277751 0.0232446 0.999344)
(0.0780614 -0.489205 0.868668)
(0.0875826 -0.65791 0.747987)
(0.107698 -0.9766 0.186156)
(-0.592623 -0.62487 -0.508268)
(-0.531048 -0.609191 0.58896)
(-0.560603 -0.626777 -0.541179)
(-0.326102 -0.305673 -0.894551)
(-0.525743 -0.643501 0.556328)
(-0.225374 -0.278193 0.93371)
(-0.569578 -0.618893 -0.540881)
(-0.535723 -0.634148 0.557546)
(-0.602977 -0.61592 -0.507012)
(-0.28786 -0.294459 -0.911279)
(-0.539858 -0.601112 0.589251)
(-0.232949 -0.318117 0.918987)
(-0.686172 -0.563221 -0.46038)
(-0.622363 -0.546381 0.560475)
(-0.620137 -0.591761 0.515024)
(-0.289353 -0.267716 0.919023)
(-0.46607 -0.722476 0.510693)
(-0.496045 -0.701572 -0.511602)
(-0.539615 -0.702299 -0.464319)
(-0.269831 -0.356234 -0.894589)
(0.232652 -0.806222 -0.543949)
(0.273948 -0.786048 0.554149)
(0.249639 -0.778212 -0.576251)
(0.0815303 -0.401557 -0.912198)
(0.305615 -0.797408 0.520328)
(0.148272 -0.368977 0.917536)
(0.238287 -0.782061 -0.575846)
(0.292497 -0.801406 0.521723)
(0.219735 -0.810722 -0.54263)
(0.0906114 -0.362243 -0.927669)
(0.262532 -0.789647 0.554557)
(0.178664 -0.394963 0.901157)
(0.133486 -0.858101 -0.495827)
(0.173238 -0.832614 0.526064)
(0.212596 -0.851669 0.479023)
(0.106794 -0.418553 0.901892)
(0.402792 -0.783542 0.473097)
(0.347299 -0.760861 -0.548155)
(0.327153 -0.800661 -0.50191)
(0.153459 -0.378176 -0.912926)
(-0.647248 0.569877 -0.506272)
(-0.584306 0.5562 0.590955)
(-0.650509 0.53643 -0.537663)
(-0.344437 0.286747 -0.893946)
(-0.619991 0.549474 0.56008)
(-0.23826 0.265879 0.934099)
(-0.642603 0.545448 -0.538097)
(-0.610575 0.559528 0.56047)
(-0.638235 0.580322 -0.505849)
(-0.333869 0.247855 -0.90945)
(-0.576213 0.565041 0.590514)
(-0.278774 0.272826 0.920788)
(-0.583736 0.665484 -0.46517)
(-0.522908 0.646238 0.555826)
(-0.570289 0.642024 0.512421)
(-0.228529 0.329161 0.916203)
(-0.700743 0.487878 0.520513)
(-0.723841 0.473245 -0.502089)
(-0.722622 0.518788 -0.456811)
(-0.394856 0.230534 -0.889349)
(0.225471 0.859793 -0.45817)
(0.257492 0.826698 0.500268)
(0.175075 0.84135 -0.51135)
(0.064634 0.482504 -0.873506)
(0.224844 0.873124 0.432551)
(0.128792 0.434686 0.891325)
(0.404843 0.725061 -0.557126)
(0.454601 0.731434 0.508274)
(0.416657 0.726034 -0.547058)
(0.141941 0.365849 -0.919786)
(0.458593 0.720755 0.519812)
(0.235272 0.387976 0.891135)
(0.0162836 0.942627 -0.333452)
(0.0473726 0.912396 0.406557)
(0.00747106 0.944715 0.327807)
(0.0328882 0.536906 0.843001)
(0.487789 0.735596 0.470064)
(0.431468 0.71615 -0.548603)
(0.473192 0.717932 -0.510552)
(0.180342 0.367705 -0.912288)
(-0.204272 -0.826205 -0.525031)
(-0.152224 -0.805559 0.572627)
(-0.175759 -0.811142 -0.557815)
(-0.135123 -0.408287 -0.902797)
(-0.130678 -0.831926 0.53928)
(-0.0507115 -0.373697 0.926164)
(-0.187462 -0.808806 -0.557397)
(-0.143978 -0.828845 0.540636)
(-0.217687 -0.823651 -0.523651)
(-0.107694 -0.379108 -0.919064)
(-0.163884 -0.802971 0.573044)
(-0.0374272 -0.411741 0.910532)
(-0.31583 -0.820588 -0.476326)
(-0.262882 -0.796173 0.544979)
(-0.238538 -0.833404 0.498535)
(-0.111458 -0.396251 0.911352)
(-0.0398047 -0.869511 0.492307)
(-0.0823114 -0.844312 -0.529492)
(-0.119373 -0.867705 -0.482532)
(-0.0611142 -0.423972 -0.903611)
(0.505855 -0.663539 -0.551204)
(0.548073 -0.658124 0.516226)
(0.507053 -0.653516 -0.561973)
(0.207836 -0.354342 -0.911727)
(0.558011 -0.657803 0.505884)
(0.269871 -0.335535 0.902544)
(0.366877 -0.758527 -0.538552)
(0.427259 -0.793725 0.432955)
(0.349274 -0.815535 -0.461421)
(0.127541 -0.397051 -0.908892)
(0.525351 -0.678203 -0.513855)
(0.55524 -0.660172 0.505847)
(0.593512 -0.657554 0.464076)
(0.298709 -0.340301 0.89161)
(0.295899 -0.902087 0.314138)
(0.250354 -0.861494 -0.44176)
(0.220861 -0.916783 -0.332759)
(0.089848 -0.495551 -0.863919)
(-0.848366 0.181176 -0.497444)
(-0.780494 0.177057 0.599567)
(-0.834676 0.151269 -0.52956)
(-0.446939 0.0956198 -0.889439)
(-0.808251 0.154057 0.568328)
(-0.333657 0.0910496 0.938287)
(-0.832345 0.162986 -0.529753)
(-0.805112 0.167437 0.568999)
(-0.845777 0.194639 -0.496766)
(-0.418442 0.0675043 -0.905731)
(-0.777909 0.188737 0.599363)
(-0.372304 0.0771163 0.924901)
(-0.840873 0.294739 -0.453941)
(-0.772527 0.286404 0.566723)
(-0.811662 0.260067 0.52304)
(-0.356954 0.151113 0.921818)
(-0.84763 0.0612369 0.527043)
(-0.866414 0.0591252 -0.495814)
(-0.887869 0.0982567 -0.449483)
(-0.462507 0.021664 -0.886351)
(0.158 0.825867 -0.541276)
(0.201155 0.805926 0.556795)
(0.126781 0.810794 -0.571436)
(0.0564621 0.407725 -0.911358)
(0.17682 0.832251 0.525446)
(0.130655 0.374265 0.918071)
(0.138544 0.808445 -0.572033)
(0.190237 0.829161 0.525645)
(0.17155 0.823299 -0.541063)
(0.0277602 0.378541 -0.925168)
(0.212856 0.803327 0.5562)
(0.116082 0.412302 0.903622)
(0.273434 0.820265 -0.502394)
(0.309069 0.796486 0.519698)
(0.280797 0.833691 0.475513)
(0.189916 0.396813 0.898038)
(0.0822395 0.869817 0.486472)
(0.0361497 0.843962 -0.535184)
(0.0771697 0.867404 -0.491585)
(-0.017311 0.423407 -0.905774)
(0.163772 -0.974477 -0.153533)
(0.1027 0.409939 0.906313)
(0.0937403 0.422267 0.901612)
(0.0917847 -0.141915 0.985614)
(0.167461 -0.91602 -0.364504)
(0.101563 0.747224 0.656766)
(0.134977 -0.988834 0.0631489)
(0.105646 -0.218524 0.970096)
(0.0117929 0.422832 0.906131)
(0.11142 0.856653 0.503717)
(0.151408 -0.871508 -0.466423)
(0.0857572 -0.677935 -0.730103)
(0.15938 0.892393 0.422176)
(0.0374999 -0.318476 -0.947189)
(0.16317 0.942269 0.292412)
(0.125183 -0.835771 -0.534617)
(0.136705 0.873825 0.466628)
(0.140401 0.981928 0.126905)
(0.00258598 0.109861 -0.993944)
(0.0110289 0.726813 -0.686747)
(0.119722 0.951937 0.281927)
(0.00623366 0.648646 -0.761065)
(0.11344 0.984401 0.134485)
(0.00740742 0.522344 -0.852703)
(0.116282 0.992421 0.0397505)
(0.124893 0.903086 0.410898)
(0.0170244 0.776257 -0.630187)
(-0.298901 0.918142 -0.260141)
(-0.273418 0.914315 0.298782)
(-0.405067 0.874988 -0.265171)
(-0.374223 0.8645 0.335554)
(-0.270487 0.919681 0.284646)
(-0.16489 0.648588 0.743064)
(-0.36945 0.879869 0.298895)
(-0.216115 0.582013 0.783935)
(-0.141676 0.640919 -0.754421)
(-0.175553 0.945492 -0.274275)
(-0.498681 0.816087 -0.292095)
(-0.460491 0.80124 0.38205)
(-0.457739 0.823893 0.334179)
(-0.24913 0.50295 0.827632)
(-0.140872 0.947248 0.287883)
(-0.165125 0.939004 -0.301672)
(0.109636 -0.971436 0.210456)
(0.106866 -0.730475 0.674527)
(0.135171 -0.630505 0.764324)
(0.162188 -0.956853 0.241095)
(0.166636 -0.952523 -0.25482)
(0.187338 -0.932008 0.310267)
(-0.577965 0.692946 -0.431024)
(-0.368349 0.415343 -0.831751)
(-0.606866 0.7017 -0.373271)
(-0.553864 0.682762 0.476519)
(-0.552138 0.680924 -0.48113)
(-0.326036 0.373566 -0.868418)
(-0.581005 0.690861 -0.430283)
(-0.523662 0.671543 0.524221)
(-0.557029 0.712849 0.426104)
(-0.257212 0.371178 0.892227)
(-0.526408 0.701282 0.480727)
(-0.220657 0.338466 0.914741)
(-0.257384 0.353008 -0.899522)
(-0.46634 0.706348 -0.532541)