/*--------------------------------*- C++ -*----------------------------------*\
  =========                 |
  \\      /  F ield         | OpenFOAM: The Open Source CFD Toolbox
   \\    /   O peration     | Website:  https://openfoam.org
    \\  /    A nd           | Version:  12
     \\/     M anipulation  |
\*---------------------------------------------------------------------------*/
FoamFile
{
    format      ascii;
    class       extendedFeatureEdgeMesh;
    location    "constant/extendedFeatureEdgeMesh";
    object      blade4.extendedFeatureEdgeMesh;
}
// * * * * * * * * * * * * * * * * * * * * * * * * * * * * * * * * * * * * * //

// points

348
(
(-1.16204 3.51948 0.480917)
(-1.16601 3.47234 0.491927)
(-1.1754 3.47061 0.510171)
(-1.33233 5.33362 0.555624)
(-1.32477 5.37994 0.568109)
(-1.31373 5.38035 0.585481)
(-1.26049 4.49382 0.555229)
(-1.27007 4.49575 0.555464)
(-1.26999 4.49956 0.549937)
(-1.26014 4.49812 0.549405)
(-1.2508 4.49277 0.554416)
(-1.25032 4.49652 0.548868)
(-1.27061 4.49624 0.544139)
(-1.26106 4.49433 0.543295)
(-1.25134 4.49326 0.543091)
(-1.24203 4.49076 0.553561)
(-1.24106 4.49375 0.548307)
(-1.27959 4.49695 0.544948)
(-1.27965 4.49971 0.550405)
(-1.34071 4.43515 0.556544)
(-1.34266 4.42559 0.555922)
(-1.34649 4.42618 0.550444)
(-1.34503 4.43603 0.550797)
(-1.33964 4.44487 0.556604)
(-1.34341 4.44586 0.551141)
(-1.3432 4.42607 0.544596)
(-1.34127 4.43566 0.54461)
(-1.34018 4.44536 0.545279)
(-1.33761 4.45368 0.556534)
(-1.34062 4.45512 0.551404)
(-1.34392 4.41706 0.544595)
(-1.34666 4.41651 0.550038)
(-1.16921 3.67727 0.487971)
(-1.16399 3.58159 0.481781)
(-1.17158 3.6829 0.486687)
(-1.1667 3.59375 0.481464)
(-1.22726 4.47916 0.553015)
(-1.2346 4.48563 0.553337)
(-1.23278 4.48878 0.547699)
(-1.22498 4.48261 0.547062)
(-1.21942 4.4734 0.552088)
(-1.21728 4.47631 0.546424)
(-1.23514 4.48611 0.542011)
(-1.22783 4.47968 0.541081)
(-1.21996 4.47389 0.540762)
(-1.21284 4.46727 0.55116)
(-1.21066 4.46928 0.545807)
(-1.24254 4.49122 0.542934)
(-1.20199 4.41371 0.549002)
(-1.20007 4.4233 0.549016)
(-1.19678 4.42319 0.543168)
(-1.19823 4.41334 0.542815)
(-1.20309 4.40401 0.548333)
(-1.19986 4.40351 0.542471)
(-1.20061 4.42378 0.53769)
(-1.20256 4.41422 0.537068)
(-1.20363 4.4045 0.537008)
(-1.20515 4.39523 0.547705)
(-1.20265 4.39425 0.542208)
(-1.19985 4.43276 0.53839)
(-1.1966 4.43286 0.543574)
(-1.32598 4.46841 0.557267)
(-1.33246 4.46109 0.556957)
(-1.33564 4.46342 0.551522)
(-1.32945 4.47123 0.551562)
(-1.32021 4.4763 0.557024)
(-1.32314 4.47894 0.551591)
(-1.333 4.46157 0.545631)
(-1.32655 4.46892 0.545333)
(-1.32075 4.47679 0.545698)
(-1.31406 4.48292 0.556663)
(-1.31609 4.48557 0.551539)
(-1.33812 4.45413 0.545907)
(-1.31638 4.36747 0.552755)
(-1.3114 4.35575 0.552243)
(-1.31421 4.35372 0.545797)
(-1.31937 4.36472 0.546514)
(-1.32343 4.3752 0.552878)
(-1.32612 4.3728 0.547183)
(-1.31202 4.3563 0.53931)
(-1.31698 4.368 0.540275)
(-1.32397 4.37569 0.541484)
(-1.32991 4.38164 0.553079)
(-1.3326 4.38009 0.547805)
(-1.30964 4.34092 0.538541)
(-1.31143 4.33948 0.545053)
(-1.20585 4.44984 0.550735)
(-1.20898 4.45911 0.550976)
(-1.20598 4.46083 0.545221)
(-1.20232 4.45158 0.54465)
(-1.20195 4.44091 0.549861)
(-1.19881 4.44226 0.544083)
(-1.20952 4.45959 0.539651)
(-1.20642 4.45035 0.538801)
(-1.20249 4.4414 0.538535)
(-1.19934 4.4323 0.549017)
(-1.21335 4.46773 0.540533)
(-1.21581 4.37829 0.548418)
(-1.21015 4.38752 0.547998)
(-1.20751 4.38571 0.542074)
(-1.21286 4.37619 0.541921)
(-1.21942 4.36534 0.548262)
(-1.21686 4.36388 0.541584)
(-1.2107 4.38801 0.536604)
(-1.21641 4.37883 0.535938)
(-1.2209 4.34894 0.547626)
(-1.21906 4.34849 0.54103)
(-1.20565 4.39569 0.537078)
(-1.29662 4.48989 0.556786)
(-1.30589 4.48677 0.556789)
(-1.30764 4.49028 0.551337)
(-1.29838 4.49396 0.551053)
(-1.28769 4.49383 0.556223)
(-1.28906 4.49748 0.550759)
(-1.30643 4.48726 0.545464)
(-1.29719 4.4904 0.544852)
(-1.28823 4.49432 0.544897)
(-1.27908 4.49649 0.555575)
(-1.31457 4.48337 0.546037)
(-1.33684 4.39902 0.554811)
(-1.33375 4.38978 0.553961)
(-1.33728 4.38854 0.548391)
(-1.34095 4.39779 0.548962)
(-1.34077 4.40797 0.555077)
(-1.34445 4.4071 0.549529)
(-1.33429 4.39026 0.542636)
(-1.33741 4.39953 0.542877)
(-1.34131 4.40845 0.543751)
(-1.34341 4.41661 0.555222)
(-1.33042 4.3821 0.542452)
(-1.16297 3.48605 0.484727)
(-1.1653 3.53736 0.480892)
(-1.17029 3.46922 0.500918)
(-1.18301 3.48286 0.518769)
(-1.1953 3.51534 0.526021)
(-1.21445 3.5772 0.531538)
(-1.27402 3.79246 0.537226)
(-1.3074 3.91739 0.538299)
(-1.24164 3.67342 0.535147)
(-1.33616 4.02623 0.538916)
(-1.31419 4.30296 0.54362)
(-1.31142 4.32226 0.544315)
(-1.31259 4.30314 0.537206)
(-1.30985 4.32288 0.53784)
(-1.31963 4.28265 0.543009)
(-1.31783 4.28264 0.536669)
(-1.30923 4.32233 0.55064)
(-1.30902 4.34036 0.551465)
(-1.32548 4.26231 0.536258)
(-1.32762 4.26239 0.542522)
(-1.22143 4.33053 0.533947)
(-1.22022 4.30986 0.533084)
(-1.22152 4.3495 0.534701)
(-1.21949 4.33024 0.540268)
(-1.34871 4.22475 0.541915)
(-1.33779 4.24305 0.542178)
(-1.33467 4.24241 0.548067)
(-1.34516 4.22406 0.547694)
(-1.34573 4.22457 0.535788)
(-1.33525 4.24293 0.535986)
(-1.35867 4.20741 0.541647)
(-1.35474 4.20668 0.547322)
(-1.3553 4.20718 0.535582)
(-1.3623 4.19069 0.535288)
(-1.36597 4.19095 0.54129)
(-1.36175 4.19019 0.546872)
(-1.366 4.1471 0.540176)
(-1.36894 4.17364 0.540785)
(-1.36456 4.17286 0.546272)
(-1.36159 4.14633 0.545494)
(-1.36222 4.1468 0.53437)
(-1.36512 4.17335 0.534855)
(-1.3556 4.10131 0.53953)
(-1.35126 4.10057 0.544519)
(-1.35209 4.10101 0.533953)
(-1.33323 4.02593 0.533724)
(-1.33201 4.02556 0.543328)
(-1.28243 4.35311 0.581578)
(-1.27299 4.35067 0.580864)
(-1.27378 4.34713 0.575219)
(-1.28354 4.3491 0.575642)
(-1.29208 4.3547 0.58169)
(-1.29326 4.35123 0.576063)
(-1.27348 4.35067 0.569526)
(-1.28295 4.3531 0.56963)
(-1.29258 4.35469 0.570352)
(-1.30077 4.3572 0.581716)
(-1.30236 4.35451 0.576456)
(-1.26453 4.34946 0.569488)
(-1.26413 4.34645 0.574801)
(-1.19925 4.4074 0.577955)
(-1.19683 4.41686 0.577542)
(-1.19354 4.41632 0.571719)
(-1.19551 4.40655 0.571808)
(-1.20085 4.39775 0.577722)
(-1.19764 4.39681 0.571903)
(-1.19732 4.41686 0.566204)
(-1.19977 4.40739 0.566008)
(-1.20135 4.39775 0.566384)
(-1.20337 4.38907 0.577483)
(-1.20091 4.38771 0.572048)
(-1.1961 4.42581 0.566498)
(-1.19286 4.42597 0.571687)
(-1.33342 5.17551 0.555667)
(-1.3338 5.27151 0.553817)
(-1.33149 5.16982 0.553949)
(-1.33181 5.25925 0.552768)
(-1.31485 4.36957 0.582978)
(-1.30789 4.36272 0.582373)
(-1.31037 4.35992 0.576802)
(-1.31784 4.36651 0.577124)
(-1.32241 4.37576 0.582999)
(-1.3252 4.37323 0.57744)
(-1.30838 4.36272 0.571035)
(-1.31537 4.36956 0.57103)
(-1.32291 4.37576 0.57166)
(-1.32869 4.38227 0.582918)
(-1.33144 4.38062 0.577709)
(-1.30123 4.35719 0.571077)
(-1.33667 4.43637 0.583903)
(-1.33912 4.4269 0.583707)
(-1.34291 4.42744 0.578191)
(-1.34094 4.43721 0.578103)
(-1.3351 4.44601 0.583527)
(-1.3388 4.44694 0.578007)
(-1.33961 4.4269 0.572369)
(-1.33719 4.43636 0.571956)
(-1.33559 4.44601 0.572188)
(-1.33261 4.45469 0.583066)
(-1.33553 4.45605 0.577863)
(-1.34081 4.41795 0.572774)
(-1.34358 4.41779 0.578224)
(-1.2157 4.37495 0.578678)
(-1.20887 4.38193 0.578075)
(-1.20632 4.37969 0.572285)
(-1.21291 4.37221 0.572573)
(-1.2219 4.36739 0.578644)
(-1.21962 4.36485 0.572866)
(-1.20936 4.38193 0.566736)
(-1.21621 4.37495 0.56673)
(-1.22239 4.36739 0.567306)
(-1.22841 4.36113 0.578578)
(-1.227 4.3586 0.573188)
(-1.20383 4.38907 0.566845)
(-1.21999 4.47636 0.579106)
(-1.22433 4.48833 0.579518)
(-1.22199 4.4905 0.57293)
(-1.21741 4.47923 0.572735)
(-1.2134 4.46827 0.578279)
(-1.2111 4.47077 0.572464)
(-1.22489 4.48833 0.56657)
(-1.22053 4.47635 0.566612)
(-1.2139 4.46827 0.566872)
(-1.2073 4.46149 0.577631)
(-1.205 4.46314 0.572202)
(-1.22646 4.50384 0.566638)
(-1.22403 4.50488 0.573014)
(-1.3347 4.40004 0.583829)
(-1.33209 4.39062 0.583414)
(-1.33568 4.38932 0.57789)
(-1.33885 4.39876 0.578024)
(-1.33816 4.40919 0.583671)
(-1.34187 4.40826 0.578152)
(-1.33259 4.39062 0.572076)
(-1.33522 4.40004 0.571882)
(-1.33865 4.40918 0.572333)
(-1.34034 4.41795 0.583413)
(-1.32915 4.38226 0.57228)
(-1.32099 4.471 0.583487)
(-1.32718 4.46211 0.583213)
(-1.33023 4.46432 0.57763)
(-1.32439 4.47355 0.577374)
(-1.3167 4.48374 0.583523)
(-1.31975 4.48563 0.57717)
(-1.32767 4.4621 0.571806)
(-1.32154 4.47099 0.570992)
(-1.31436 4.50005 0.583413)
(-1.31675 4.50089 0.577035)
(-1.33308 4.45469 0.572427)
(-1.24614 4.35508 0.580004)
(-1.23675 4.3577 0.579291)
(-1.23569 4.35436 0.573566)
(-1.24513 4.35118 0.573976)
(-1.25529 4.35163 0.580096)
(-1.25462 4.34817 0.574389)
(-1.23724 4.3577 0.567952)
(-1.24666 4.35508 0.568056)
(-1.25578 4.35163 0.568758)
(-1.26406 4.34946 0.580127)
(-1.22888 4.36112 0.567939)
(-1.20122 4.44372 0.578029)
(-1.20386 4.45314 0.577835)
(-1.20077 4.45444 0.572021)
(-1.19759 4.44499 0.571886)
(-1.19779 4.43458 0.577578)
(-1.19458 4.43549 0.571759)
(-1.20435 4.45314 0.566497)
(-1.20174 4.44372 0.566082)
(-1.19829 4.43457 0.56624)
(-1.19564 4.42581 0.577137)
(-1.20776 4.46149 0.566992)
(-1.3292 5.36674 0.56067)
(-1.3301 5.31561 0.554586)
(-1.31955 5.38243 0.576793)
(-1.30609 5.36735 0.592854)
(-1.29504 5.33399 0.597652)
(-1.27897 5.27103 0.598924)
(-1.23128 5.05291 0.590548)
(-1.20499 4.92649 0.583578)
(-1.257 5.17345 0.59619)
(-1.18243 4.81637 0.577217)
(-1.21936 4.54123 0.5728)
(-1.22314 4.52209 0.57297)
(-1.22153 4.54143 0.566556)
(-1.22531 4.52185 0.566645)
(-1.21287 4.56124 0.572513)
(-1.21522 4.56163 0.566368)
(-1.22475 4.52186 0.579459)
(-1.2259 4.50384 0.579577)
(-1.20651 4.58153 0.566079)
(-1.20383 4.58106 0.572115)
(-1.31401 4.519 0.570491)
(-1.31414 4.53973 0.570571)
(-1.31492 4.50005 0.570474)
(-1.31537 4.51912 0.576969)
(-1.18081 4.61753 0.571105)
(-1.19267 4.59984 0.571625)
(-1.19521 4.60038 0.577794)
(-1.18378 4.61815 0.577205)
(-1.1843 4.61814 0.565285)
(-1.19574 4.60037 0.565699)
(-1.16995 4.63433 0.570629)
(-1.17332 4.63501 0.576662)
(-1.17382 4.635 0.56491)
(-1.16596 4.65111 0.564642)
(-1.1618 4.65038 0.570271)
(-1.16546 4.65111 0.576239)
(-1.15941 4.69418 0.570917)
(-1.15792 4.66752 0.570193)
(-1.16175 4.66828 0.576081)
(-1.16328 4.69494 0.57664)
(-1.16367 4.69493 0.565495)
(-1.16223 4.66827 0.56465)
(-1.16725 4.74043 0.573054)
(-1.17108 4.74117 0.578441)
(-1.17121 4.74116 0.567836)
(-1.18578 4.81706 0.572329)
(-1.18613 4.81706 0.582011)
)

// edges

298
(
(6 7)
(8 9)
(10 6)
(9 11)
(12 13)
(13 14)
(10 15)
(11 16)
(12 17)
(8 18)
(19 20)
(21 22)
(23 19)
(22 24)
(25 26)
(26 27)
(23 28)
(24 29)
(25 30)
(21 31)
(32 33)
(34 35)
(36 37)
(38 39)
(40 36)
(39 41)
(42 43)
(43 44)
(40 45)
(41 46)
(42 47)
(38 16)
(48 49)
(50 51)
(52 48)
(51 53)
(54 55)
(55 56)
(52 57)
(53 58)
(54 59)
(50 60)
(61 62)
(63 64)
(65 61)
(64 66)
(67 68)
(68 69)
(65 70)
(66 71)
(67 72)
(63 29)
(73 74)
(75 76)
(77 73)
(76 78)
(79 80)
(80 81)
(77 82)
(78 83)
(79 84)
(75 85)
(86 87)
(88 89)
(90 86)
(89 91)
(92 93)
(93 94)
(90 95)
(91 60)
(92 96)
(88 46)
(97 98)
(99 100)
(101 97)
(100 102)
(103 104)
(101 105)
(102 106)
(103 107)
(99 58)
(108 109)
(110 111)
(112 108)
(111 113)
(114 115)
(115 116)
(112 117)
(113 18)
(114 118)
(110 71)
(119 120)
(121 122)
(123 119)
(122 124)
(125 126)
(126 127)
(123 128)
(124 31)
(125 129)
(121 83)
(0 130)
(130 1)
(0 131)
(1 132)
(131 35)
(0 33)
(2 133)
(133 134)
(134 135)
(2 132)
(136 137)
(138 136)
(137 139)
(138 135)
(140 141)
(142 143)
(144 140)
(145 142)
(146 147)
(141 85)
(145 148)
(144 149)
(150 151)
(150 152)
(153 106)
(154 155)
(156 157)
(158 159)
(160 154)
(157 161)
(162 158)
(155 149)
(159 148)
(162 163)
(160 164)
(161 165)
(166 167)
(168 169)
(170 171)
(172 166)
(169 173)
(174 170)
(168 165)
(167 164)
(171 163)
(174 175)
(172 139)
(173 176)
(177 178)
(179 180)
(181 177)
(180 182)
(183 184)
(184 185)
(181 186)
(182 187)
(183 188)
(179 189)
(190 191)
(192 193)
(194 190)
(193 195)
(196 197)
(197 198)
(194 199)
(195 200)
(196 201)
(192 202)
(203 204)
(205 206)
(207 208)
(209 210)
(211 207)
(210 212)
(213 214)
(214 215)
(211 216)
(212 217)
(213 218)
(209 187)
(219 220)
(221 222)
(223 219)
(222 224)
(225 226)
(226 227)
(223 228)
(224 229)
(225 230)
(221 231)
(232 233)
(234 235)
(236 232)
(235 237)
(238 239)
(239 240)
(236 241)
(237 242)
(238 243)
(234 200)
(244 245)
(246 247)
(248 244)
(247 249)
(250 251)
(251 252)
(248 253)
(249 254)
(250 255)
(246 256)
(257 258)
(259 260)
(261 257)
(260 262)
(263 264)
(264 265)
(261 266)
(262 231)
(263 267)
(259 217)
(268 269)
(270 271)
(272 268)
(271 273)
(274 275)
(272 276)
(273 277)
(274 278)
(270 229)
(279 280)
(281 282)
(283 279)
(282 284)
(285 286)
(286 287)
(283 288)
(284 189)
(285 289)
(281 242)
(290 291)
(292 293)
(294 290)
(293 295)
(296 297)
(297 298)
(294 299)
(295 202)
(296 300)
(292 254)
(3 301)
(301 4)
(3 302)
(4 303)
(302 206)
(3 204)
(5 304)
(304 305)
(305 306)
(5 303)
(307 308)
(309 307)
(308 310)
(309 306)
(311 312)
(313 314)
(315 311)
(316 313)
(317 318)
(312 256)
(316 319)
(315 320)
(321 322)
(321 323)
(324 277)
(325 326)
(327 328)
(329 330)
(331 325)
(328 332)
(333 329)
(326 320)
(330 319)
(333 334)
(331 335)
(332 336)
(337 338)
(339 340)
(341 342)
(343 337)
(340 344)
(345 341)
(339 336)
(338 335)
(342 334)
(345 346)
(343 310)
(344 347)
)

// concaveStart mixedStart nonFeatureStart
0 6 6
// internalStart flatStart openStart multipleStart
0 298 298 298
// normals

594
(
(-0.173128 -0.787255 -0.591825)
(-0.0984121 -0.37635 -0.921236)
(-0.149049 -0.813241 -0.562515)
(-0.093654 -0.839707 0.534902)
(-0.135457 -0.815637 -0.562484)
(-0.114992 -0.338541 -0.933899)
(-0.161279 -0.789214 -0.592563)
(-0.112308 -0.856725 0.503397)
(-0.125996 -0.854855 0.503337)
(-0.00389581 -0.421085 0.907013)
(-0.0817621 -0.841412 0.534173)
(-0.0310791 -0.45105 0.891957)
(-0.17291 -0.365019 -0.914802)
(-0.239008 -0.824785 -0.51245)
(-0.269385 -0.78713 -0.554849)
(-0.228045 -0.85539 0.465083)
(0.0433883 -0.4626 0.885505)
(-0.0296166 -0.891679 0.451698)
(0.0103225 -0.868123 0.496242)
(-0.0388627 -0.849961 -0.52541)
(0.784066 -0.120372 -0.608893)
(0.371741 -0.0154587 -0.928208)
(0.810226 -0.0991029 -0.577679)
(0.84205 -0.143117 0.520067)
(0.812666 -0.0856111 -0.576406)
(0.333807 -0.0307841 -0.942139)
(0.786039 -0.108564 -0.608569)
(0.858855 -0.158922 0.486941)
(0.856972 -0.172503 0.485635)
(0.425388 -0.0865832 0.90086)
(0.84377 -0.131271 0.520404)
(0.455246 -0.11238 0.883245)
(0.360267 -0.090238 -0.928474)
(0.821797 -0.193259 -0.536004)
(0.783894 -0.219599 -0.580764)
(0.857101 -0.270681 0.438302)
(0.466915 -0.0376288 0.883501)
(0.893751 -0.0719368 0.442757)
(0.870513 -0.0361639 0.490814)
(0.847341 0.00717617 -0.531)
(-0.969805 -0.0680846 0.234185)
(-0.621954 -0.0843136 0.778501)
(-0.447594 -0.0766904 0.890942)
(0.0727182 -0.0543661 0.99587)
(-0.559 -0.60627 -0.565646)
(-0.298506 -0.293571 -0.908136)
(-0.550283 -0.640278 -0.535941)
(-0.485033 -0.670994 0.560811)
(-0.539742 -0.649145 -0.535993)
(-0.29437 -0.252755 -0.921662)
(-0.549787 -0.613851 -0.566499)
(-0.510598 -0.676947 0.530125)
(-0.521481 -0.668542 0.530198)
(-0.188172 -0.346406 0.919018)
(-0.47566 -0.678375 0.55996)
(-0.227142 -0.359073 0.905248)
(-0.357244 -0.246424 -0.900917)
(-0.632625 -0.604376 -0.484268)
(-0.641319 -0.557469 -0.527198)
(-0.611208 -0.618751 0.49353)
(-0.16853 -0.40638 0.898027)
(-0.457787 -0.749471 0.478251)
(-0.410223 -0.748199 0.521455)
(-0.472137 -0.726391 -0.499442)
(-0.837912 0.16873 -0.51907)
(-0.458253 0.0931473 -0.883927)
(-0.861084 0.144752 -0.487423)
(-0.788194 0.0947469 0.60809)
(-0.863446 0.131201 -0.487081)
(-0.421762 0.109753 -0.90004)
(-0.839892 0.156938 -0.51957)
(-0.808008 0.11327 0.57818)
(-0.806211 0.126917 0.577855)
(-0.337434 0.00760554 0.941318)
(-0.78992 0.0829207 0.607578)
(-0.368729 0.0347031 0.928889)
(-0.446553 0.167713 -0.878898)
(-0.86824 0.23496 -0.436981)
(-0.834685 0.265155 -0.482694)
(-0.810412 0.228733 0.539363)
(-0.380625 -0.0398531 0.92387)
(-0.847288 0.0302147 0.530274)
(-0.819747 -0.00941244 0.572648)
(-0.894019 0.0347451 -0.44668)
(0.602331 -0.506711 -0.6168)
(0.288577 -0.215776 -0.932826)
(0.636447 -0.500784 -0.586644)
(0.672546 -0.534927 0.511405)
(0.645336 -0.490324 -0.585768)
(0.247671 -0.210374 -0.945728)
(0.609906 -0.4975 -0.616854)
(0.678296 -0.557654 0.478473)
(0.669864 -0.568462 0.477633)
(0.350365 -0.27107 0.89653)
(0.679949 -0.525524 0.511366)
(0.362864 -0.308635 0.879246)
(0.241326 -0.274848 -0.930709)
(0.600668 -0.587403 -0.54236)
(0.553472 -0.592105 -0.58573)
(0.61971 -0.654464 0.433171)
(0.410261 -0.249721 0.877112)
(0.750707 -0.500526 0.431177)
(0.749747 -0.457 0.478571)
(0.722961 -0.426403 -0.543606)
(0.774249 0.35199 -0.525967)
(0.418207 0.216303 -0.882222)
(0.787377 0.399983 -0.469096)
(0.801661 0.344164 0.488765)
(0.62054 0.573873 -0.534416)
(0.288489 0.277382 -0.916424)
(0.620896 0.562964 -0.54549)
(0.677099 0.521831 0.518873)
(0.848933 0.325361 0.416476)
(0.456627 0.120761 0.881424)
(0.666566 0.523041 0.531148)
(0.393783 0.217903 0.893003)
(0.284676 0.314796 -0.905463)
(0.605634 0.625044 -0.492471)
(0.608391 0.586948 -0.534183)
(0.673928 0.558381 0.483768)
(0.569915 0.0471592 0.820349)
(0.948081 0.132219 0.289243)
(0.914212 0.159468 0.372539)
(0.908797 0.197059 -0.367773)
(-0.80234 -0.256359 -0.539009)
(-0.430229 -0.121729 -0.894475)
(-0.810917 -0.289611 -0.508468)
(-0.739268 -0.328943 0.587604)
(-0.806212 -0.302579 -0.508397)
(-0.406658 -0.0886759 -0.909266)
(-0.798161 -0.267545 -0.539777)
(-0.765227 -0.321905 0.557498)
(-0.77046 -0.309183 0.557491)
(-0.310271 -0.189493 0.931571)
(-0.734849 -0.340041 0.58683)
(-0.350713 -0.181263 0.918773)
(-0.457395 -0.0514342 -0.887775)
(-0.862916 -0.216507 -0.456619)
(-0.848245 -0.1723 -0.500793)
(-0.824375 -0.221941 0.520719)
(-0.323731 -0.251629 0.912075)
(-0.757083 -0.412024 0.507012)
(-0.714047 -0.433883 0.549438)
(-0.78513 -0.402553 -0.47066)
(-0.754763 0.440767 -0.485857)
(-0.431585 0.224929 -0.87358)
(-0.763863 0.437051 -0.474867)
(-0.707304 0.388176 0.590796)
(-0.884181 0.250851 -0.394078)
(-0.460861 0.138835 -0.876545)
(-0.834945 0.283962 -0.471415)
(-0.826498 0.254578 0.502087)
(-0.709119 0.398904 0.5814)
(-0.324431 0.13386 0.93639)
(-0.549633 0.08198 -0.831374)
(-0.956823 0.0971945 -0.273938)
(-0.912845 0.14448 -0.381891)
(-0.919078 0.118063 0.375973)
(-0.334277 0.162358 0.928385)
(-0.716733 0.437374 0.543138)
(-0.711024 0.395793 0.5812)
(-0.77937 0.450659 -0.435304)
(0.251932 -0.750828 -0.610563)
(0.116478 -0.347894 -0.93027)
(0.285367 -0.762211 -0.581034)
(0.330087 -0.789931 0.516771)
(0.298341 -0.757536 -0.58063)
(0.0834249 -0.323015 -0.94271)
(0.263147 -0.74661 -0.611005)
(0.322821 -0.813062 0.484476)
(0.3101 -0.818256 0.48404)
(0.193233 -0.393492 0.898791)
(0.341169 -0.785489 0.516344)
(0.184841 -0.432612 0.882429)
(0.0461692 -0.375415 -0.925706)
(0.212395 -0.818554 -0.533721)
(0.167975 -0.799857 -0.576206)
(0.22254 -0.868464 0.442996)
(0.255236 -0.405265 0.877847)
(0.412713 -0.800578 0.434445)
(0.434883 -0.761577 0.480497)
(0.398537 -0.740159 -0.541602)
(0.748497 0.304727 -0.588977)
(0.343712 0.199417 -0.917657)
(0.760073 0.335278 -0.556667)
(0.793135 0.280588 0.540561)
(0.755434 0.348153 -0.555076)
(0.318708 0.167641 -0.93291)
(0.744305 0.315932 -0.588385)
(0.816067 0.276266 0.507653)
(0.821255 0.263591 0.506025)
(0.39822 0.110524 0.910607)
(0.788706 0.291699 0.541161)
(0.437234 0.103586 0.893363)
(0.37111 0.128917 -0.919596)
(0.816465 0.258225 -0.516435)
(0.797468 0.217868 -0.562653)
(0.871069 0.18001 0.456985)
(0.410017 0.174156 0.895297)
(0.803543 0.370331 0.46602)
(0.764831 0.388311 0.514051)
(0.738476 0.444491 -0.507031)
(-0.994978 0.0164291 -0.0987397)
(0.43717 0.0898214 0.894882)
(-0.949368 0.0475605 -0.310545)
(0.75639 0.164622 0.633067)
(0.450476 0.0834135 0.888883)
(-0.100989 -0.0169926 0.994742)
(-0.908479 0.0477003 -0.4152)
(0.854425 0.205115 0.477373)
(0.464178 0.00255697 0.885738)
(-0.179533 -0.0144379 0.983646)
(-0.992846 -0.032728 0.114828)
(-0.721556 0.0370269 -0.691366)
(0.877696 0.26503 0.39926)
(-0.371269 0.0663074 -0.926155)
(0.91922 0.2879 0.268604)
(0.0540134 0.105288 -0.992974)
(0.952957 0.286097 0.100106)
(0.865353 0.235904 0.442169)
(-0.872784 0.0335076 -0.486955)
(0.677681 0.187173 -0.711137)
(0.935044 0.247651 0.253695)
(0.597335 0.176166 -0.782404)
(0.960043 0.259335 0.105182)
(0.728562 0.196241 -0.656267)
(0.893057 0.233809 0.384426)
(0.96237 0.271531 0.0107352)
(0.467687 0.164724 -0.868409)
(0.938305 -0.123025 -0.323184)
(0.960821 -0.146373 0.235367)
(0.964873 -0.141428 0.221399)
(0.70579 -0.120673 0.698068)
(0.9122 -0.233967 -0.336377)
(0.92957 -0.256699 0.264587)
(0.941996 -0.246375 0.227911)
(0.650424 -0.185298 0.736623)
(0.613369 0.0289427 -0.789266)
(0.945067 0.00388184 -0.326852)
(0.935537 0.0154317 -0.352891)
(0.971803 -0.00979386 0.235591)
(0.580051 -0.234281 0.780162)
(0.902623 -0.345242 0.257061)
(0.88334 -0.355693 0.305275)
(0.867422 -0.333191 -0.369543)
(-0.963724 -0.0674175 0.258247)
(-0.700525 -0.0708202 0.710105)
(-0.601564 -0.0344835 0.79808)
(-0.955957 -0.016008 0.293071)
(-0.931682 0.00681591 0.363211)
(-0.979282 0.0314499 -0.200043)
(0.767288 -0.45112 -0.455807)
(0.786344 -0.474734 0.395337)
(0.750999 -0.419241 -0.510135)
(0.422496 -0.223813 -0.878297)
(0.813753 -0.468672 0.343734)
(0.454902 -0.269075 0.848919)
(0.74946 -0.422636 -0.509597)
(0.773078 -0.450962 0.446075)
(0.732338 -0.391483 -0.557156)
(0.372638 -0.185829 -0.90918)
(0.800495 -0.445127 0.401335)
(0.418105 -0.240363 0.876022)
(0.810519 -0.419049 -0.409215)
(0.826961 -0.441153 0.348596)
(0.851638 -0.43296 0.295395)
(0.509994 -0.268271 0.817274)
(0.398834 -0.185343 0.898098)
(0.812318 -0.353096 0.464179)
(0.788571 -0.360788 0.497984)
(0.7579 -0.324107 -0.566165)
(0.741086 -0.298604 -0.601354)
(0.339857 -0.118995 -0.932919)
(0.784214 0.100938 -0.612225)
(0.836671 0.0802351 0.541797)
(0.772596 0.10489 -0.626173)
(0.315761 0.0631316 -0.946736)
(0.839275 0.0819151 0.5375)
(0.407841 0.0279125 0.912626)
(0.769256 0.183489 -0.612027)
(0.836723 0.18291 0.516177)
(0.755388 0.183884 -0.628949)
(0.305316 0.089112 -0.948072)
(0.828234 0.178311 0.531257)
(0.425353 0.0858584 0.900946)
(0.32388 -0.0198181 -0.94589)
(0.769954 -0.103149 -0.629707)
(0.784313 -0.116914 -0.609249)
(0.826288 -0.157647 0.540736)
(0.840673 -0.149546 0.520485)
(0.397742 -0.0874078 0.913324)
(0.462081 0.113392 0.879559)
(0.833133 0.207722 0.512583)
(0.855294 0.217557 0.470256)
(0.754129 0.200324 -0.625428)
(0.728477 0.197418 -0.656008)
(0.288189 0.0891158 -0.953418)
(0.163892 0.80297 -0.573044)
(0.0374324 0.411735 -0.910534)
(0.143982 0.828846 -0.540632)
(0.187466 0.808807 0.557393)
(0.130635 0.831935 -0.539276)
(0.0506883 0.373703 -0.926162)
(0.152183 0.805568 -0.572625)
(0.204224 0.826183 0.525085)
(0.21769 0.823652 0.523648)
(0.107695 0.379107 0.919064)
(0.17576 0.811144 0.557812)
(0.13512 0.408282 0.9028)
(0.111481 0.396234 -0.911357)
(0.23858 0.833381 -0.498553)
(0.262915 0.796159 -0.544983)
(0.31587 0.820596 0.476285)
(0.061136 0.423966 0.903612)
(0.119419 0.867704 0.482523)
(0.0823496 0.844308 0.529493)
(0.0398503 0.869507 -0.49231)
(-0.826881 0.188379 -0.529887)
(-0.450954 0.0765439 -0.889259)
(-0.851335 0.167115 -0.497294)
(-0.78339 0.16335 0.59968)
(-0.854405 0.153731 -0.496345)
(-0.413603 0.090482 -0.90595)
(-0.829475 0.176694 -0.529859)
(-0.802155 0.181487 0.568867)
(-0.799632 0.194994 0.567949)
(-0.338492 0.0680865 0.938503)
(-0.785736 0.1516 0.599697)
(-0.3683 0.0961684 0.92472)
(-0.435378 0.150558 -0.887569)
(-0.85386 0.259781 -0.451039)
(-0.818685 0.286066 -0.497916)
(-0.798436 0.295029 0.524841)
(-0.38407 0.022203 0.923037)
(-0.845634 0.0985181 0.524592)
(-0.820277 0.0594581 0.568868)
(-0.890071 0.0609328 -0.451731)
(0.989013 0.00678083 0.147673)
(0.692167 0.0166602 0.721545)
(0.528211 0.0130996 0.849012)
(0.0188268 0.0132696 0.999735)
(0.539849 0.601096 -0.589277)
(0.232958 0.318121 -0.918983)
(0.535713 0.634138 -0.557566)
(0.569578 0.618893 0.540881)
(0.525717 0.643455 -0.556405)
(0.225375 0.278195 -0.93371)
(0.531014 0.609198 -0.588984)
(0.592585 0.62487 0.508312)
(0.602986 0.615919 0.507003)
(0.287866 0.294459 0.911278)
(0.560606 0.626775 0.541179)
(0.326106 0.305681 0.894547)
(0.289365 0.267723 -0.919017)
(0.62012 0.591748 -0.515059)
(0.622346 0.546334 -0.560539)
(0.686186 0.563197 0.460389)
(0.269847 0.356235 0.894583)
(0.539643 0.702297 0.46429)
(0.496055 0.70157 0.511594)
(0.466064 0.722463 -0.510717)
(0.777923 -0.188721 -0.599349)
(0.37231 -0.0771084 -0.9249)
(0.805094 -0.167447 -0.569022)
(0.832348 -0.162994 0.529745)
(0.808239 -0.154059 -0.568345)
(0.333659 -0.0910556 -0.938286)
(0.780509 -0.177038 -0.599553)
(0.84838 -0.181161 0.497426)
(0.845782 -0.194652 0.496752)
(0.418441 -0.0675094 0.905731)
(0.834685 -0.151247 0.529552)
(0.446942 -0.0956037 0.88944)
(0.356943 -0.15112 -0.921821)
(0.811635 -0.260084 -0.523072)
(0.772514 -0.28641 -0.566738)
(0.840871 -0.294749 0.453938)
(0.462511 -0.0216449 0.886349)
(0.887853 -0.0982121 0.449524)
(0.866421 -0.0591257 0.495801)
(0.84763 -0.0612369 -0.527043)
(-0.625175 0.564708 -0.538759)
(-0.357414 0.272265 -0.89338)
(-0.656835 0.559209 -0.505819)
(-0.593662 0.545786 0.59134)
(-0.666157 0.549167 -0.50463)
(-0.318208 0.265311 -0.91014)
(-0.633268 0.555875 -0.538493)
(-0.601013 0.570225 0.560025)
(-0.592106 0.580607 0.558844)
(-0.253931 0.248406 0.93478)
(-0.601545 0.536803 0.591597)
(-0.265789 0.287331 0.920216)
(-0.306969 0.328615 -0.893187)
(-0.612489 0.641717 -0.46158)
(-0.569109 0.645897 -0.508853)
(-0.541319 0.665746 0.513572)
(-0.316405 0.231112 0.920041)
(-0.680357 0.519129 0.51732)
(-0.677654 0.473604 0.562569)
(-0.743137 0.487598 -0.458254)
(-0.836251 -0.287087 -0.467188)
(-0.506085 -0.154302 -0.848569)
(-0.846964 -0.336834 -0.411332)
(-0.773314 -0.323465 0.545303)
(-0.696544 -0.516137 -0.498427)
(-0.383519 -0.22049 -0.896826)
(-0.69727 -0.504705 -0.509006)
(-0.656703 -0.508586 0.556849)
(-0.825648 -0.298999 0.478439)
(-0.382902 -0.13626 0.913684)
(-0.645238 -0.51089 0.568031)
(-0.324822 -0.236973 0.915606)
(-0.380859 -0.25848 -0.88777)
(-0.680887 -0.569787 -0.460148)
(-0.685181 -0.529818 -0.49982)
(-0.658674 -0.543647 0.520189)
(-0.496833 -0.0541754 0.866154)
(-0.924689 -0.0954243 0.368572)
(-0.885165 -0.128121 0.44729)
(-0.94738 -0.132629 -0.291344)
(0.764606 0.238119 -0.598897)
(0.355539 0.139201 -0.924238)
(0.777698 0.269464 -0.567957)
(0.805625 0.263176 0.530761)
(0.773729 0.282595 -0.566996)
(0.32894 0.108091 -0.938145)
(0.761006 0.249538 -0.598832)
(0.828376 0.256166 0.498169)
(0.83288 0.243182 0.497165)
(0.401597 0.130985 0.906401)
(0.801779 0.274525 0.530836)
(0.440228 0.121238 0.889663)
(0.37922 0.0673604 -0.922851)
(0.8299 0.191507 -0.524014)
(0.808901 0.150108 -0.56846)
(0.878363 0.154971 0.452175)
(0.416752 0.193129 0.888267)
(0.820872 0.348734 0.452277)
(0.783056 0.370878 0.499272)
(0.761733 0.381759 -0.523473)
(0.682954 -0.457279 -0.569623)
(0.339318 -0.207647 -0.917467)
(0.69316 -0.454547 -0.55939)
(0.73394 -0.450735 0.508105)
(0.830406 -0.278695 -0.482446)
(0.37299 -0.123162 -0.919625)
(0.772748 -0.305681 -0.556255)
(0.852113 -0.319673 0.414381)
(0.734312 -0.461119 0.498152)
(0.397996 -0.192568 0.896949)
(0.468456 -0.0731037 -0.880457)
(0.921889 -0.134589 -0.363326)
(0.865951 -0.174615 -0.468655)
(0.940682 -0.182655 0.285928)
(0.405483 -0.221155 0.886947)
(0.736351 -0.498176 0.45783)
(0.736371 -0.458093 0.497904)
(0.71132 -0.4707 -0.521982)
(-0.262574 0.789667 -0.554509)
(-0.178686 0.394957 -0.901155)
(-0.292489 0.801406 -0.521727)
(-0.23828 0.782059 0.575853)
(-0.305619 0.797432 -0.520288)
(-0.148272 0.36898 -0.917534)
(-0.273962 0.786076 -0.554103)
(-0.23265 0.806217 0.543955)
(-0.219726 0.810722 0.542632)
(-0.0906059 0.362252 0.927666)
(-0.249637 0.778208 0.576258)
(-0.0815297 0.401555 0.912199)
(-0.106793 0.418541 -0.901897)
(-0.212598 0.851666 -0.479027)
(-0.173281 0.832632 -0.52602)
(-0.133527 0.858092 0.495831)
(-0.153464 0.378171 0.912927)
(-0.327156 0.800659 0.50191)
(-0.347304 0.760855 0.54816)
(-0.402804 0.783566 -0.473047)
(-0.813558 -0.238437 -0.53035)
(-0.434178 -0.139744 -0.889922)
(-0.823929 -0.26978 -0.498357)
(-0.756678 -0.262821 0.598634)
(-0.819881 -0.282951 -0.497729)
(-0.408889 -0.108674 -0.90609)
(-0.809956 -0.249887 -0.530591)
(-0.782136 -0.255834 0.568166)
(-0.786712 -0.242866 0.567539)
(-0.321647 -0.130416 0.937835)
(-0.752847 -0.274151 0.598383)
(-0.361594 -0.120667 0.924494)
(-0.457652 -0.0679198 -0.886533)
(-0.872139 -0.191811 -0.450091)
(-0.855063 -0.150432 -0.496223)
(-0.835934 -0.154659 0.526589)
(-0.338306 -0.192582 0.921119)
(-0.77864 -0.348441 0.521832)
(-0.736882 -0.370566 0.565408)
(-0.804162 -0.382097 -0.45533)
(0.979849 -0.0638818 -0.189248)
(-0.360623 -0.107014 0.926552)
(0.914007 -0.0830369 -0.397109)
(-0.705444 -0.153202 0.69201)
(-0.374023 -0.0996603 0.922049)
(0.189401 -0.0330294 0.981344)
(0.86407 -0.0763342 -0.497551)
(-0.818982 -0.18149 0.544361)
(-0.383402 -0.0181355 0.923404)
(0.266375 -0.0391779 0.963073)
(0.999381 -0.0243297 0.0253977)
(0.654339 -0.0435202 -0.754948)
(-0.852398 -0.236544 0.466331)
(0.283578 -0.0438959 -0.957944)
(-0.906521 -0.251313 0.339208)
(-0.14749 -0.0575907 -0.987386)
(-0.954873 -0.240176 0.174735)
(-0.834686 -0.210054 0.509094)
(0.823028 -0.0570976 -0.565123)
(-0.747359 -0.119396 -0.653605)
(-0.921331 -0.209665 0.3274)
(-0.673143 -0.109403 -0.731375)
(-0.959982 -0.213339 0.181441)
(-0.793611 -0.128249 -0.594756)
(-0.86723 -0.203922 0.454233)
(-0.971332 -0.221138 0.0872421)
(-0.55117 -0.100887 -0.828271)
(-0.954851 0.186236 -0.231465)
(-0.926512 0.185596 0.327308)
(-0.932057 0.1815 0.313571)
(-0.633382 0.125848 0.763537)
(-0.923848 0.296145 -0.242494)
(-0.886667 0.292716 0.357966)
(-0.902849 0.284713 0.322184)
(-0.571299 0.185698 0.799459)
(-0.681457 0.0386178 -0.730838)
(-0.969009 0.0601485 -0.239593)
(-0.962483 0.0493015 -0.266826)
(-0.945067 0.0499085 0.323045)
(-0.494723 0.228932 0.838355)
(-0.855577 0.379971 0.351582)
(-0.831528 0.387229 0.398265)
(-0.876687 0.394294 -0.275595)
(0.985053 0.00535346 0.172167)
(0.763468 0.00217463 0.645842)
(0.670798 -0.0328665 0.740912)
(0.977528 -0.0470981 0.205478)
(0.958321 -0.0717465 0.276539)
(0.954434 -0.0734884 -0.289234)
(-0.778122 0.510593 -0.365815)
(-0.720441 0.496886 0.483807)
(-0.768508 0.480358 -0.422672)
(-0.485354 0.28481 -0.826629)