/*--------------------------------*- C++ -*----------------------------------*\
  =========                 |
  \\      /  F ield         | OpenFOAM: The Open Source CFD Toolbox
   \\    /   O peration     | Website:  https://openfoam.org
    \\  /    A nd           | Version:  12
     \\/     M anipulation  |
\*---------------------------------------------------------------------------*/
FoamFile
{
    format      ascii;
    class       extendedFeatureEdgeMesh;
    location    "constant/extendedFeatureEdgeMesh";
    object      blade1.extendedFeatureEdgeMesh;
}
// * * * * * * * * * * * * * * * * * * * * * * * * * * * * * * * * * * * * * //

// points

348
(
(-2.17525 8.12261 0.524659)
(-2.22112 8.11309 0.537474)
(-2.22097 8.10281 0.555308)
(-0.351797 8.14656 0.51349)
(-0.305996 8.15855 0.524327)
(-0.30593 8.16882 0.542172)
(-1.18958 8.12813 0.546466)
(-1.18708 8.11849 0.546466)
(-1.19059 8.11775 0.552141)
(-1.19353 8.12707 0.552446)
(-1.19353 8.12707 0.540487)
(-1.19059 8.11775 0.540792)
(-1.19224 8.13774 0.546466)
(-1.19564 8.13662 0.552141)
(-1.19564 8.13662 0.540792)
(-1.18588 8.10888 0.546466)
(-1.18889 8.10888 0.541142)
(-1.196 8.14666 0.546466)
(-1.19861 8.14515 0.551791)
(-1.24217 8.03704 0.546466)
(-1.25182 8.03454 0.546466)
(-1.25255 8.03805 0.552141)
(-1.24323 8.041 0.552446)
(-1.24323 8.041 0.540487)
(-1.25255 8.03805 0.540792)
(-1.23256 8.0397 0.546466)
(-1.23368 8.04311 0.552141)
(-1.23368 8.04311 0.540792)
(-1.26142 8.03334 0.546466)
(-1.26142 8.03636 0.541142)
(-1.22365 8.04346 0.546466)
(-1.22516 8.04607 0.551791)
(-2.01165 8.13057 0.522971)
(-2.10096 8.12599 0.521805)
(-2.01743 8.13226 0.524606)
(-2.11331 8.12736 0.522771)
(-1.20883 8.16148 0.546466)
(-1.20184 8.15437 0.546466)
(-1.20451 8.15198 0.552141)
(-1.21172 8.15858 0.552446)
(-1.21172 8.15858 0.540487)
(-1.20451 8.15198 0.540792)
(-1.21593 8.16847 0.546466)
(-1.21832 8.16579 0.552141)
(-1.21832 8.16579 0.540792)
(-1.19861 8.14515 0.541142)
(-1.22365 8.17431 0.546466)
(-1.22516 8.17169 0.551791)
(-1.28067 8.18073 0.546466)
(-1.27102 8.18323 0.546466)
(-1.27029 8.17972 0.552141)
(-1.27961 8.17677 0.552446)
(-1.27961 8.17677 0.540487)
(-1.27029 8.17972 0.540792)
(-1.29028 8.17807 0.546466)
(-1.28916 8.17466 0.552141)
(-1.28916 8.17466 0.540792)
(-1.26142 8.18443 0.546466)
(-1.26142 8.18141 0.541142)
(-1.29919 8.17431 0.546466)
(-1.29768 8.17169 0.551791)
(-1.20883 8.05629 0.546466)
(-1.21593 8.0493 0.546466)
(-1.21832 8.05198 0.552141)
(-1.21172 8.05919 0.552446)
(-1.21172 8.05919 0.540487)
(-1.21832 8.05198 0.540792)
(-1.20184 8.0634 0.546466)
(-1.20451 8.06579 0.552141)
(-1.20451 8.06579 0.540792)
(-1.22516 8.04607 0.541142)
(-1.196 8.07111 0.546466)
(-1.19861 8.07262 0.551791)
(-1.31593 8.05499 0.546466)
(-1.32743 8.05896 0.546466)
(-1.32541 8.06169 0.552946)
(-1.31322 8.05799 0.552719)
(-1.31322 8.05799 0.540213)
(-1.32541 8.06169 0.539987)
(-1.30715 8.04914 0.546466)
(-1.30478 8.05183 0.552175)
(-1.30478 8.05183 0.540758)
(-1.3419 8.06022 0.546466)
(-1.34098 8.06243 0.539991)
(-1.29919 8.04346 0.546466)
(-1.29768 8.04607 0.551791)
(-1.24217 8.18073 0.546466)
(-1.23256 8.17807 0.546466)
(-1.23368 8.17466 0.552141)
(-1.24323 8.17677 0.552446)
(-1.24323 8.17677 0.540487)
(-1.23368 8.17466 0.540792)
(-1.25182 8.18323 0.546466)
(-1.25255 8.17972 0.552141)
(-1.25255 8.17972 0.540792)
(-1.22516 8.17169 0.541142)
(-1.26142 8.18141 0.551791)
(-1.31606 8.16222 0.546466)
(-1.30716 8.16856 0.546466)
(-1.3048 8.16587 0.552175)
(-1.31334 8.15924 0.552719)
(-1.31334 8.15924 0.540213)
(-1.3048 8.16587 0.540758)
(-1.32787 8.15693 0.546466)
(-1.32583 8.15426 0.552946)
(-1.29768 8.17169 0.541142)
(-1.34295 8.1531 0.546466)
(-1.34199 8.15104 0.552942)
(-1.18958 8.08963 0.546466)
(-1.19224 8.08003 0.546466)
(-1.19564 8.08115 0.552141)
(-1.19353 8.09069 0.552446)
(-1.19353 8.09069 0.540487)
(-1.19564 8.08115 0.540792)
(-1.18708 8.09928 0.546466)
(-1.19059 8.10001 0.552141)
(-1.19059 8.10001 0.540792)
(-1.19861 8.07262 0.541142)
(-1.18889 8.10888 0.551791)
(-1.28067 8.03704 0.546466)
(-1.29028 8.0397 0.546466)
(-1.28916 8.04311 0.552141)
(-1.27961 8.041 0.552446)
(-1.27961 8.041 0.540487)
(-1.28916 8.04311 0.540792)
(-1.27102 8.03454 0.546466)
(-1.27029 8.03805 0.552141)
(-1.27029 8.03805 0.540792)
(-1.29768 8.04607 0.541142)
(-1.26142 8.03636 0.551791)
(-2.20817 8.11791 0.529847)
(-2.15714 8.12131 0.523714)
(-2.22334 8.10813 0.546376)
(-2.20759 8.09621 0.563001)
(-2.17369 8.0872 0.568263)
(-2.10995 8.07464 0.57021)
(-1.76188 8.01884 0.557976)
(-1.88955 8.03852 0.56384)
(-2.01132 8.05789 0.5684)
(-1.65069 8.00202 0.552564)
(-1.35904 8.05839 0.546466)
(-1.37795 8.05358 0.546466)
(-1.39757 8.04601 0.546466)
(-1.35891 8.0603 0.540053)
(-1.37825 8.05546 0.540134)
(-1.39808 8.04807 0.540226)
(-1.34098 8.06243 0.552942)
(-1.35891 8.0603 0.552879)
(-1.41687 8.0359 0.546466)
(-1.41747 8.03828 0.540321)
(-1.38158 8.14811 0.540134)
(-1.36087 8.14911 0.540053)
(-1.34199 8.15104 0.539991)
(-1.36107 8.15073 0.546466)
(-1.45283 8.01411 0.552432)
(-1.43571 8.0265 0.55252)
(-1.43502 8.02372 0.546466)
(-1.45205 8.01091 0.546466)
(-1.4691 8.00273 0.552348)
(-1.46823 7.99916 0.546466)
(-1.43571 8.0265 0.540413)
(-1.45283 8.01411 0.540501)
(-1.4691 8.00273 0.540585)
(-1.48475 7.99401 0.552271)
(-1.48382 7.99013 0.546466)
(-1.48475 7.99401 0.540662)
(-1.5284 7.98948 0.552779)
(-1.50169 7.98936 0.552279)
(-1.50072 7.98533 0.546562)
(-1.52742 7.9854 0.547229)
(-1.57499 7.99483 0.554256)
(-1.57403 7.99082 0.549039)
(-1.50169 7.98935 0.540838)
(-1.52839 7.98938 0.541628)
(-1.57497 7.9945 0.543654)
(-1.65159 8.00589 0.557194)
(-1.65155 8.00512 0.547535)
(-1.33386 8.08765 0.57791)
(-1.33687 8.09715 0.578037)
(-1.33316 8.09807 0.583556)
(-1.32971 8.08892 0.583714)
(-1.33022 8.08892 0.571767)
(-1.33365 8.09807 0.572218)
(-1.33068 8.0782 0.577775)
(-1.3271 8.07951 0.583299)
(-1.32759 8.0795 0.571961)
(-1.33859 8.10667 0.578109)
(-1.33581 8.10683 0.572659)
(-1.32645 8.0695 0.577594)
(-1.32369 8.07115 0.582803)
(-1.28632 8.18146 0.57582)
(-1.27683 8.18448 0.575407)
(-1.27566 8.18102 0.581038)
(-1.28479 8.17757 0.581739)
(-1.28531 8.17756 0.569792)
(-1.27615 8.18101 0.569699)
(-1.29576 8.17828 0.57623)
(-1.29421 8.17494 0.581844)
(-1.2947 8.17494 0.570505)
(-1.26732 8.1862 0.574994)
(-1.26738 8.18318 0.569669)
(-1.30445 8.17404 0.576608)
(-1.30257 8.17152 0.581857)
(-0.514648 8.12975 0.518865)
(-0.425851 8.13916 0.513846)
(-0.508717 8.12838 0.520245)
(-0.413412 8.13846 0.514274)
(-1.31285 8.0554 0.577009)
(-1.3202 8.06212 0.577326)
(-1.31742 8.06465 0.582884)
(-1.30985 8.05845 0.582863)
(-1.31037 8.05845 0.570916)
(-1.31791 8.06464 0.571546)
(-1.30538 8.04881 0.576687)
(-1.30289 8.05161 0.582258)
(-1.30339 8.0516 0.57092)
(-1.32415 8.07115 0.572165)
(-1.29736 8.04339 0.576341)
(-1.29577 8.04608 0.581601)
(-1.24013 8.04007 0.573861)
(-1.24962 8.03705 0.574274)
(-1.2503 8.04052 0.579982)
(-1.24115 8.04396 0.579889)
(-1.24166 8.04396 0.567942)
(-1.25079 8.04051 0.568643)
(-1.23069 8.04325 0.573451)
(-1.23175 8.04659 0.579176)
(-1.23224 8.04658 0.567837)
(-1.25914 8.03533 0.574687)
(-1.25953 8.03834 0.569373)
(-1.222 8.04749 0.573073)
(-1.22342 8.05001 0.578463)
(-1.31854 8.16043 0.577223)
(-1.31183 8.16779 0.57693)
(-1.30906 8.16526 0.58249)
(-1.31524 8.1577 0.583066)
(-1.31575 8.15769 0.571118)
(-1.30955 8.16525 0.571152)
(-1.32513 8.15296 0.577511)
(-1.32209 8.15072 0.58306)
(-1.32258 8.15071 0.571721)
(-1.30303 8.17152 0.571218)
(-1.33054 8.14494 0.577748)
(-1.32762 8.14357 0.582951)
(-1.21177 8.16753 0.572592)
(-1.20008 8.16419 0.572086)
(-1.20167 8.16136 0.578642)
(-1.21404 8.16439 0.57895)
(-1.21458 8.16438 0.566456)
(-1.20223 8.16135 0.565695)
(-1.22085 8.1729 0.572984)
(-1.22281 8.17009 0.578784)
(-1.22331 8.17009 0.567377)
(-1.18557 8.16372 0.571458)
(-1.18666 8.16146 0.565024)
(-1.22909 8.17814 0.57334)
(-1.23022 8.17545 0.578719)
(-1.27854 8.03798 0.575527)
(-1.28827 8.04012 0.575948)
(-1.28709 8.04358 0.581576)
(-1.27744 8.04199 0.581463)
(-1.27796 8.04199 0.569516)
(-1.28758 8.04358 0.570237)
(-1.26878 8.03601 0.575104)
(-1.26799 8.03956 0.580749)
(-1.26849 8.03955 0.569411)
(-1.29623 8.04608 0.570962)
(-1.25907 8.03835 0.580012)
(-1.20583 8.06047 0.572368)
(-1.21436 8.05366 0.57274)
(-1.21662 8.05621 0.578551)
(-1.20843 8.0633 0.578739)
(-1.20897 8.0633 0.566244)
(-1.21712 8.05621 0.567144)
(-1.19433 8.06639 0.571868)
(-1.19623 8.06895 0.578435)
(-1.22388 8.05001 0.567824)
(-1.1795 8.07103 0.571223)
(-1.18029 8.07304 0.577738)
(-1.33594 8.12609 0.577988)
(-1.33381 8.13583 0.577892)
(-1.3301 8.1349 0.583412)
(-1.33168 8.12525 0.583788)
(-1.33219 8.12525 0.571841)
(-1.33059 8.13489 0.572074)
(-1.33791 8.11632 0.578076)
(-1.33412 8.11578 0.583592)
(-1.33462 8.11578 0.572254)
(-1.32808 8.14357 0.572312)
(-1.33535 8.10684 0.583298)
(-1.24791 8.18355 0.574154)
(-1.23819 8.18141 0.573733)
(-1.23887 8.17795 0.579444)
(-1.2485 8.17954 0.580166)
(-1.24901 8.17954 0.568218)
(-1.23936 8.17795 0.568105)
(-1.25767 8.18552 0.574577)
(-1.25797 8.18198 0.58027)
(-1.25846 8.18197 0.568932)
(-1.23068 8.17545 0.56808)
(-1.26692 8.18319 0.580308)
(-0.318988 8.15304 0.517258)
(-0.36997 8.14688 0.513331)
(-0.303664 8.16363 0.533136)
(-0.319304 8.17469 0.550451)
(-0.353386 8.18184 0.557193)
(-0.417563 8.19094 0.561921)
(-0.768348 8.2278 0.56487)
(-0.639661 8.21506 0.565165)
(-0.516937 8.20232 0.564414)
(-0.880413 8.23856 0.564309)
(-1.16857 8.16647 0.57072)
(-1.14997 8.1723 0.569912)
(-1.1308 8.18092 0.569078)
(-1.16888 8.16456 0.564315)
(-1.14985 8.17043 0.563569)
(-1.13046 8.17889 0.562817)
(-1.18609 8.16147 0.577963)
(-1.16833 8.16456 0.577129)
(-1.1121 8.19206 0.568264)
(-1.11164 8.18971 0.562093)
(-1.14151 8.0781 0.563236)
(-1.16211 8.07599 0.564049)
(-1.18085 8.07303 0.564799)
(-1.16155 8.07438 0.570444)
(-1.07715 8.21577 0.572712)
(-1.09356 8.20247 0.573516)
(-1.09466 8.2052 0.567504)
(-1.07836 8.21892 0.566793)
(-1.06154 8.22801 0.571948)
(-1.06286 8.23154 0.566117)
(-1.09408 8.20247 0.56142)
(-1.07766 8.21577 0.560793)
(-1.06205 8.22801 0.560195)
(-1.0464 8.23758 0.571211)
(-1.0478 8.24139 0.565461)
(-1.0469 8.23757 0.559614)
(-1.00308 8.24446 0.56984)
(-1.02975 8.24313 0.570496)
(-1.03119 8.2471 0.564834)
(-1.00452 8.24847 0.564346)
(-0.956251 8.24165 0.569289)
(-0.957646 8.2456 0.564126)
(-1.03025 8.24314 0.559066)
(-1.00358 8.24455 0.5587)
(-0.956746 8.24196 0.558698)
(-0.879108 8.23475 0.568887)
(-0.879609 8.23551 0.559241)
)

// edges

298
(
(6 7)
(8 9)
(10 11)
(12 6)
(9 13)
(14 10)
(7 15)
(11 16)
(12 17)
(13 18)
(19 20)
(21 22)
(23 24)
(25 19)
(22 26)
(27 23)
(20 28)
(24 29)
(25 30)
(26 31)
(32 33)
(34 35)
(36 37)
(38 39)
(40 41)
(42 36)
(39 43)
(44 40)
(37 17)
(41 45)
(42 46)
(43 47)
(48 49)
(50 51)
(52 53)
(54 48)
(51 55)
(56 52)
(49 57)
(53 58)
(54 59)
(55 60)
(61 62)
(63 64)
(65 66)
(67 61)
(64 68)
(69 65)
(62 30)
(66 70)
(67 71)
(68 72)
(73 74)
(75 76)
(77 78)
(79 73)
(76 80)
(81 77)
(74 82)
(78 83)
(79 84)
(80 85)
(86 87)
(88 89)
(90 91)
(92 86)
(89 93)
(94 90)
(87 46)
(91 95)
(92 57)
(93 96)
(97 98)
(99 100)
(101 102)
(103 97)
(100 104)
(98 59)
(102 105)
(103 106)
(104 107)
(108 109)
(110 111)
(112 113)
(114 108)
(111 115)
(116 112)
(109 71)
(113 117)
(114 15)
(115 118)
(119 120)
(121 122)
(123 124)
(125 119)
(122 126)
(127 123)
(120 84)
(124 128)
(125 28)
(126 129)
(130 0)
(131 0)
(1 130)
(0 35)
(131 33)
(1 132)
(133 2)
(134 133)
(2 132)
(134 135)
(136 137)
(137 138)
(138 135)
(136 139)
(140 141)
(141 142)
(143 144)
(144 145)
(146 147)
(142 148)
(145 149)
(140 82)
(150 151)
(152 151)
(153 106)
(154 155)
(156 157)
(158 154)
(157 159)
(160 161)
(161 162)
(158 163)
(159 164)
(162 165)
(160 149)
(156 148)
(166 167)
(168 169)
(170 166)
(169 171)
(172 173)
(173 174)
(163 167)
(170 175)
(171 139)
(174 176)
(172 165)
(168 164)
(177 178)
(179 180)
(181 182)
(183 177)
(180 184)
(185 181)
(178 186)
(182 187)
(183 188)
(184 189)
(190 191)
(192 193)
(194 195)
(196 190)
(193 197)
(198 194)
(191 199)
(195 200)
(196 201)
(197 202)
(203 204)
(205 206)
(207 208)
(209 210)
(211 212)
(213 207)
(210 214)
(215 211)
(208 188)
(212 216)
(213 217)
(214 218)
(219 220)
(221 222)
(223 224)
(225 219)
(222 226)
(227 223)
(220 228)
(224 229)
(225 230)
(226 231)
(232 233)
(234 235)
(236 237)
(238 232)
(235 239)
(240 236)
(233 201)
(237 241)
(238 242)
(239 243)
(244 245)
(246 247)
(248 249)
(250 244)
(247 251)
(252 248)
(245 253)
(249 254)
(250 255)
(251 256)
(257 258)
(259 260)
(261 262)
(263 257)
(260 264)
(265 261)
(258 217)
(262 266)
(263 228)
(264 267)
(268 269)
(270 271)
(272 273)
(274 268)
(271 275)
(269 230)
(273 276)
(274 277)
(275 278)
(279 280)
(281 282)
(283 284)
(285 279)
(282 286)
(287 283)
(280 242)
(284 288)
(285 186)
(286 289)
(290 291)
(292 293)
(294 295)
(296 290)
(293 297)
(298 294)
(291 255)
(295 299)
(296 199)
(297 300)
(301 3)
(302 3)
(4 301)
(3 206)
(302 204)
(4 303)
(304 5)
(305 304)
(5 303)
(305 306)
(307 308)
(308 309)
(309 306)
(307 310)
(311 312)
(312 313)
(314 315)
(315 316)
(317 318)
(313 319)
(316 320)
(311 253)
(321 322)
(323 322)
(324 277)
(325 326)
(327 328)
(329 325)
(328 330)
(331 332)
(332 333)
(329 334)
(330 335)
(333 336)
(331 320)
(327 319)
(337 338)
(339 340)
(341 337)
(340 342)
(343 344)
(344 345)
(334 338)
(341 346)
(342 310)
(345 347)
(343 336)
(339 335)
)

// concaveStart mixedStart nonFeatureStart
0 6 6
// internalStart flatStart openStart multipleStart
0 298 298 298
// normals

594
(
(-0.818726 -0.211954 -0.533632)
(-0.798623 -0.20675 0.565205)
(-0.791765 -0.231801 -0.565135)
(-0.407247 -0.0990366 -0.907933)
(-0.811735 -0.239154 0.532814)
(-0.374586 -0.088216 0.922986)
(-0.794997 -0.220235 -0.565223)
(-0.815001 -0.225783 0.533662)
(-0.822533 -0.198746 -0.53286)
(-0.368519 -0.110894 -0.922982)
(-0.801595 -0.195163 0.565117)
(-0.402206 -0.117867 0.90793)
(-0.865087 -0.108122 -0.489831)
(-0.839701 -0.104956 0.53281)
(-0.86096 -0.145228 0.4875)
(-0.421873 -0.0448523 0.905545)
(-0.803247 -0.338926 0.48982)
(-0.77965 -0.328976 -0.532843)
(-0.81824 -0.304699 -0.487486)
(-0.38778 -0.172093 -0.905544)
(-0.211947 0.818752 -0.533595)
(-0.206723 0.798597 0.565251)
(-0.231825 0.791746 -0.56515)
(-0.0990541 0.407234 -0.907936)
(-0.239216 0.811744 0.532773)
(-0.0882507 0.374607 0.922974)
(-0.220205 0.794993 -0.565239)
(-0.225757 0.814987 0.533695)
(-0.198725 0.822516 -0.532893)
(-0.110891 0.368534 -0.922977)
(-0.195122 0.801572 0.565164)
(-0.117849 0.402207 0.907932)
(-0.108166 0.865031 -0.48992)
(-0.105008 0.839727 0.532758)
(-0.145149 0.860917 0.4876)
(-0.0448183 0.42187 0.905548)
(-0.338965 0.803214 0.489847)
(-0.329011 0.77961 -0.532879)
(-0.304674 0.818297 -0.487406)
(-0.172075 0.387784 -0.905546)
(-0.0142676 0.023739 0.999616)
(0.0137919 -0.491057 0.871018)
(0.0193653 -0.660086 0.75094)
(0.0464795 -0.98061 0.190377)
(-0.603101 -0.592925 -0.533581)
(-0.588264 -0.578338 0.565217)
(-0.569761 -0.596639 -0.56515)
(-0.30316 -0.289405 -0.907931)
(-0.583409 -0.613015 0.532773)
(-0.280288 -0.263698 0.922985)
(-0.578341 -0.588242 -0.565238)
(-0.592899 -0.603059 0.533657)
(-0.612944 -0.583399 -0.532865)
(-0.263689 -0.280301 -0.922984)
(-0.596603 -0.569819 0.565129)
(-0.289393 -0.3032 0.907921)
(-0.695141 -0.526189 -0.489801)
(-0.674753 -0.510756 0.532764)
(-0.673026 -0.556251 0.487463)
(-0.342931 -0.249768 0.905547)
(-0.526185 -0.695092 0.489874)
(-0.510739 -0.674698 -0.532849)
(-0.556252 -0.672971 -0.487539)
(-0.24979 -0.342933 -0.90554)
(0.211915 -0.818704 -0.533681)
(0.206709 -0.798591 0.565264)
(0.231754 -0.791753 -0.565171)
(0.0990298 -0.407276 -0.907921)
(0.239117 -0.811707 0.532874)
(0.088208 -0.374594 0.922984)
(0.220288 -0.794957 -0.565258)
(0.225855 -0.81502 0.533603)
(0.198729 -0.822584 -0.532788)
(0.110882 -0.368514 -0.922986)
(0.195119 -0.801564 0.565176)
(0.117852 -0.402211 0.90793)
(0.108092 -0.865107 -0.489801)
(0.104921 -0.839676 0.532856)
(0.145269 -0.860973 0.487465)
(0.0448719 -0.421892 0.905535)
(0.338881 -0.803239 0.489864)
(0.328957 -0.779701 -0.532779)
(0.30474 -0.818198 -0.487529)
(0.172115 -0.387768 -0.905545)
(-0.592926 0.603045 -0.533643)
(-0.578376 0.588257 0.565185)
(-0.596626 0.56982 -0.565104)
(-0.289379 0.303168 -0.907937)
(-0.612984 0.583412 0.532805)
(-0.263692 0.280295 0.922985)
(-0.588241 0.578388 -0.565191)
(-0.603029 0.592919 0.53367)
(-0.583406 0.612929 -0.532875)
(-0.280306 0.263685 -0.922984)
(-0.569836 0.596617 0.565097)
(-0.303188 0.289383 0.907929)
(-0.526166 0.69519 -0.489756)
(-0.510711 0.67476 0.532796)
(-0.55621 0.673036 0.487497)
(-0.249746 0.342934 0.905551)
(-0.695107 0.526167 0.489872)
(-0.674708 0.510718 -0.532856)
(-0.672982 0.55624 -0.487538)
(-0.34293 0.249778 -0.905544)
(0.291338 0.845378 -0.447725)
(0.280028 0.812561 0.511204)
(0.242367 0.829584 -0.503039)
(0.128419 0.476527 -0.86973)
(0.252901 0.860552 0.442144)
(0.113472 0.428874 0.896209)
(0.46723 0.700944 -0.538863)
(0.471126 0.7068 0.527707)
(0.478672 0.701298 -0.528256)
(0.20122 0.355742 -0.912666)
(0.474032 0.69594 0.539408)
(0.217161 0.37649 0.900609)
(0.0817303 0.939674 -0.332163)
(0.0790904 0.909322 0.408507)
(0.0444683 0.943569 0.328176)
(0.0254346 0.536065 0.843793)
(0.506136 0.709034 0.491017)
(0.492983 0.690619 -0.529162)
(0.533102 0.690214 -0.489292)
(0.239306 0.355516 -0.903516)
(-0.225844 -0.815022 -0.533605)
(-0.220283 -0.794956 0.565262)
(-0.195121 -0.801572 -0.565164)
(-0.117844 -0.402206 -0.907933)
(-0.198726 -0.822581 0.532794)
(-0.110881 -0.368516 0.922985)
(-0.206711 -0.798599 -0.565252)
(-0.211913 -0.818695 0.533696)
(-0.239121 -0.811716 -0.532859)
(-0.0882046 -0.374584 -0.922988)
(-0.231744 -0.791753 0.565174)
(-0.0990205 -0.407286 0.907917)
(-0.338886 -0.803232 -0.489872)
(-0.328956 -0.779695 0.532788)
(-0.30474 -0.818192 0.48754)
(-0.172112 -0.387772 0.905544)
(-0.108101 -0.865102 0.489809)
(-0.104918 -0.839682 -0.532847)
(-0.145257 -0.860974 -0.487467)
(-0.0448584 -0.421894 -0.905535)
(0.492508 -0.691075 -0.529011)
(0.488741 -0.685799 0.539271)
(0.494701 -0.681204 -0.53966)
(0.227578 -0.366976 -0.901963)
(0.499129 -0.686038 0.529361)
(0.211977 -0.347813 0.913286)
(0.348226 -0.77838 -0.522363)
(0.364519 -0.814799 0.450809)
(0.324264 -0.834148 -0.44615)
(0.145061 -0.40518 -0.902655)
(0.509589 -0.706682 -0.490835)
(0.496282 -0.688219 0.529206)
(0.536392 -0.687761 0.48915)
(0.240998 -0.354162 0.903598)
(0.232702 -0.916142 0.326395)
(0.22217 -0.874677 -0.430791)
(0.185023 -0.928085 -0.323147)
(0.10015 -0.501497 -0.859343)
(-0.815009 0.225792 -0.533646)
(-0.795007 0.220251 0.565203)
(-0.801598 0.19516 -0.565113)
(-0.402212 0.117865 -0.907928)
(-0.822546 0.198757 0.532836)
(-0.368518 0.110901 0.922982)
(-0.798618 0.206779 -0.5652)
(-0.818716 0.211983 0.533636)
(-0.811714 0.239142 -0.532852)
(-0.374595 0.0882193 -0.922982)
(-0.791777 0.231812 0.565113)
(-0.407242 0.0990403 0.907935)
(-0.803244 0.33887 -0.489863)
(-0.779684 0.32893 0.532821)
(-0.818218 0.30469 0.487527)
(-0.387791 0.17209 0.90554)
(-0.865085 0.108117 0.489835)
(-0.83969 0.104937 -0.532831)
(-0.860961 0.145238 -0.487495)
(-0.421878 0.0448461 -0.905543)
(0.225746 0.814985 -0.533702)
(0.220218 0.794979 0.565254)
(0.195124 0.801577 -0.565155)
(0.117846 0.402206 -0.907933)
(0.198721 0.822524 0.532883)
(0.110889 0.368537 0.922976)
(0.206726 0.798602 -0.565243)
(0.211936 0.818758 0.533591)
(0.239217 0.811749 -0.532765)
(0.0882497 0.374604 -0.922976)
(0.231827 0.791736 0.565165)
(0.0990537 0.407239 0.907934)
(0.338983 0.803262 -0.489755)
(0.329001 0.779623 0.532866)
(0.30474 0.818196 0.487534)
(0.172115 0.387768 0.905545)
(0.108175 0.865033 0.489915)
(0.105005 0.839731 -0.532752)
(0.145156 0.860925 -0.487583)
(0.0448102 0.421873 -0.905547)
(0.117221 -0.982231 -0.146565)
(0.0854445 0.405679 0.910013)
(0.077384 0.418455 0.904935)
(0.0412364 -0.144692 0.988617)
(0.133223 -0.924493 -0.357161)
(0.11337 0.741986 0.66076)
(0.0783532 -0.994558 0.0686618)
(0.0515867 -0.221983 0.973685)
(-0.00453501 0.423422 0.905921)
(0.135781 0.8504 0.508315)
(0.124031 -0.879391 -0.459661)
(0.0804338 -0.683062 -0.725918)
(0.189101 0.883339 0.428898)
(0.0611363 -0.321975 -0.944772)
(0.201183 0.932659 0.299452)
(0.102704 -0.842385 -0.528999)
(0.163508 0.866065 0.472437)
(0.187781 0.973154 0.133079)
(0.0515305 0.107526 -0.992866)
(0.0800837 0.723716 -0.685435)
(0.15881 0.944635 0.287129)
(0.0742942 0.645827 -0.75986)
(0.160683 0.977106 0.139447)
(0.0725897 0.519505 -0.851378)
(0.168042 0.984757 0.044899)
(0.155738 0.895776 0.416331)
(0.0863015 0.772907 -0.628623)
(-0.237187 0.932432 -0.272603)
(-0.236152 0.928363 0.287009)
(-0.345205 0.895074 -0.282269)
(-0.340995 0.884166 0.319333)
(-0.232332 0.933527 0.273036)
(-0.161517 0.658091 0.73541)
(-0.333821 0.899168 0.282948)
(-0.21798 0.594452 0.774023)
(-0.0739608 0.646137 -0.75963)
(-0.11202 0.953037 -0.281374)
(-0.440607 0.841282 -0.313224)
(-0.432505 0.825809 0.361911)
(-0.426477 0.848125 0.314327)
(-0.257103 0.517379 0.816221)
(-0.101658 0.954045 0.281894)
(-0.100795 0.945946 -0.308265)
(0.0476171 -0.975517 0.214709)
(0.0378367 -0.73385 0.678257)
(0.0676277 -0.635369 0.769242)
(0.0995344 -0.963731 0.24762)
(0.125657 -0.960663 -0.247665)
(0.122973 -0.940145 0.317812)
(-0.520404 0.722361 -0.455384)
(-0.308966 0.432967 -0.846806)
(-0.551265 0.732784 -0.398916)
(-0.536159 0.712704 0.452312)
(-0.493113 0.708858 -0.504341)
(-0.267431 0.38889 -0.881615)
(-0.523577 0.720448 -0.454777)
(-0.508698 0.699978 0.501255)
(-0.535504 0.742864 0.401731)
(-0.275075 0.386385 0.880364)
(-0.507945 0.729721 0.45771)
(-0.241364 0.351772 0.904434)
(-0.19871 0.364577 -0.909724)
(-0.403885 0.729464 -0.55205)
(-0.429353 0.741913 -0.514997)
(-0.41833 0.722858 0.549978)
(-0.414818 0.748754 0.517005)
(-0.18363 0.337649 0.923187)
(-0.281638 0.44252 0.851385)
(-0.506358 0.78638 0.353848)
(-0.509339 0.758754 0.406036)
(-0.521721 0.777199 -0.351809)
(-0.0076703 0.805477 -0.592578)
(-0.0159221 0.360956 -0.932447)
(-0.0121645 0.815992 -0.577935)
(0.016693 0.816473 0.577142)
(0.0724882 0.797052 -0.599544)
(0.0109267 0.353448 -0.93539)
(0.0714296 0.810062 -0.581977)
(0.117447 0.82873 0.547186)
(0.0178818 0.819429 0.572902)
(0.0279163 0.369057 0.928988)
(0.114499 0.819155 0.562028)
(0.0830526 0.393229 0.915682)
(-0.099121 0.360001 -0.927671)
(-0.214161 0.780495 -0.587335)
(0.0124957 0.336641 -0.94155)
(0.0875002 0.772939 -0.628418)
(0.0891213 0.79743 -0.596794)
(0.147707 0.852934 0.500686)
(0.142297 0.828003 0.542368)
(0.105478 0.433567 0.894927)
(-0.0855143 0.34652 0.934137)
(-0.21295 0.796511 0.565882)
(-0.218508 0.780471 0.585763)
(-0.228389 0.792398 -0.565636)
(0.782137 0.255831 -0.568166)
(0.809942 0.24988 0.530617)
(0.75284 0.274153 -0.598392)
(0.361584 0.120665 -0.924498)
(0.819871 0.282956 0.497743)
(0.408893 0.108687 0.906087)
(0.756666 0.26284 -0.598642)
(0.823915 0.269798 0.49837)
(0.786724 0.242869 -0.56752)
(0.321645 0.130416 -0.937836)
(0.81354 0.238443 0.530375)
(0.434198 0.139755 0.889911)
(0.835939 0.154652 -0.526582)
(0.855062 0.150424 0.496228)
(0.872133 0.191789 0.450113)
(0.457652 0.067899 0.886535)
(0.80419 0.382133 0.45525)
(0.736885 0.370587 -0.565389)
(0.778651 0.348458 -0.521805)
(0.338307 0.192579 -0.92112)
(0.23267 -0.806171 -0.544015)
(0.273993 -0.786061 0.554109)
(0.249606 -0.778244 -0.576223)
(0.0815134 -0.401572 -0.912193)
(0.305562 -0.797385 0.520393)
(0.148246 -0.368974 0.917541)
(0.238286 -0.782082 -0.575818)
(0.292493 -0.801433 0.521683)
(0.219759 -0.810707 -0.542642)
(0.0906142 -0.362237 -0.927671)
(0.26253 -0.789676 0.554518)
(0.178656 -0.394933 0.901172)
(0.133483 -0.858102 -0.495827)
(0.17323 -0.832578 0.526123)
(0.212597 -0.85164 0.479074)
(0.106804 -0.418573 0.901881)
(0.402802 -0.783533 0.473104)
(0.347309 -0.760845 -0.54817)
(0.327133 -0.800702 -0.501857)
(0.153445 -0.378173 -0.912929)
(0.058814 -0.0226467 0.998012)
(-0.00261424 0.489816 0.871822)
(-0.0225404 0.658383 0.752346)
(-0.0912082 0.976718 0.194172)
(0.546382 0.624523 -0.558066)
(0.579974 0.609501 0.540499)
(0.511665 0.626409 -0.588057)
(0.247455 0.305098 -0.919609)
(0.571848 0.643858 0.508367)
(0.305312 0.278799 0.910525)
(0.520585 0.618568 -0.588528)
(0.581918 0.634517 0.508685)
(0.556825 0.615613 -0.557644)
(0.207896 0.293884 -0.932958)
(0.588804 0.601397 0.54003)
(0.311614 0.318661 0.895183)
(0.6438 0.562876 -0.518354)
(0.668555 0.546648 0.504193)
(0.66239 0.592106 0.458967)
(0.367794 0.26828 0.890367)
(0.508519 0.722723 0.46806)
(0.449941 0.701228 -0.553021)
(0.497294 0.701984 -0.509821)
(0.19138 0.355696 -0.914797)
(-0.278897 0.805823 -0.522365)
(-0.225035 0.786425 0.575235)
(-0.298544 0.777895 -0.552947)
(-0.160161 0.401032 -0.901954)
(-0.25943 0.797738 0.544344)
(-0.0683066 0.369537 0.926702)
(-0.287246 0.781728 -0.553525)
(-0.24626 0.801727 0.5446)
(-0.265866 0.810439 -0.522019)
(-0.170542 0.361676 -0.916573)
(-0.213647 0.790018 0.574653)
(-0.100048 0.395512 0.912995)
(-0.175912 0.857764 -0.483007)
(-0.127084 0.832934 0.538583)
(-0.17038 0.851968 0.495098)
(-0.0283556 0.419102 0.907496)
(-0.360377 0.78387 0.505644)
(-0.393473 0.760557 -0.516461)
(-0.369432 0.800337 -0.472209)
(-0.231915 0.377574 -0.896467)
(0.601022 -0.570223 -0.560016)
(0.633281 -0.555877 0.538475)
(0.601554 -0.53681 -0.591581)
(0.2658 -0.28734 -0.92021)
(0.666137 -0.549176 0.504645)
(0.318201 -0.265323 0.910138)
(0.593657 -0.545809 -0.591324)
(0.6568 -0.559207 0.505868)
(0.5921 -0.58063 -0.558826)
(0.253921 -0.248408 -0.934782)
(0.625203 -0.564694 0.538741)
(0.357437 -0.272262 0.893371)
(0.541334 -0.665761 -0.513536)
(0.569105 -0.645891 0.508866)
(0.612449 -0.641717 0.461634)
(0.306976 -0.328629 0.893179)
(0.743201 -0.487582 0.458166)
(0.677687 -0.473568 -0.56256)
(0.680394 -0.519128 -0.517272)
(0.316404 -0.231104 -0.920043)
(-0.264296 -0.860067 -0.436385)
(-0.21324 -0.826342 0.521237)
(-0.21862 -0.841631 -0.493823)
(-0.139959 -0.483047 -0.864336)
(-0.186517 -0.872904 0.450833)
(-0.0511461 -0.434158 0.899384)
(-0.451468 -0.725379 -0.519617)
(-0.408874 -0.731133 0.546139)
(-0.462502 -0.726357 -0.508426)
(-0.221035 -0.366401 -0.903822)
(-0.411868 -0.72039 0.558035)
(-0.157271 -0.387411 0.908394)
(-0.0449936 -0.942828 -0.330229)
(-0.0119325 -0.912189 0.409596)
(0.0209529 -0.9445 0.327841)
(0.0402056 -0.536362 0.84303)
(-0.445286 -0.735204 0.511074)
(-0.477394 -0.71647 -0.50869)
(-0.515547 -0.718221 -0.4673)
(-0.258594 -0.368267 -0.893033)
(0.157965 0.825875 -0.541274)
(0.201113 0.805929 0.556805)
(0.126831 0.810844 -0.571354)
(0.0564827 0.407702 -0.911366)
(0.176743 0.83229 0.525409)
(0.130619 0.374291 0.918066)
(0.138594 0.808495 -0.571951)
(0.190279 0.82915 0.525646)
(0.171509 0.823306 -0.541065)
(0.0277322 0.378529 -0.925174)
(0.2129 0.803311 0.556206)
(0.116105 0.412296 0.903622)
(0.273367 0.820222 -0.502501)
(0.309039 0.796513 0.519676)
(0.28082 0.83365 0.475571)
(0.189926 0.396796 0.898043)
(0.0822375 0.869816 0.486474)
(0.0361534 0.843961 -0.535184)
(0.0771172 0.867373 -0.491648)
(-0.0173278 0.423406 -0.905775)
(-0.551694 0.663221 -0.505738)
(-0.501371 0.658466 0.561292)
(-0.553817 0.653204 -0.516344)
(-0.285975 0.353793 -0.890533)
(-0.512212 0.658137 0.551809)
(-0.190771 0.336092 0.922306)
(-0.412112 0.758248 -0.505197)
(-0.388183 0.794024 0.467804)
(-0.387917 0.815262 -0.429963)
(-0.205723 0.396475 -0.894699)
(-0.567898 0.67788 -0.466873)
(-0.509458 0.660503 0.551532)
(-0.551178 0.657859 0.513249)
(-0.220441 0.34085 0.913907)
(-0.267632 0.902299 0.33798)
(-0.287668 0.861232 -0.41896)
(-0.248827 0.91662 -0.312878)
(-0.164271 0.495039 -0.853201)
(0.802146 -0.181479 -0.568883)
(0.829472 -0.17668 0.529869)
(0.785732 -0.151603 -0.599701)
(0.368307 -0.096175 -0.924717)
(0.854393 -0.153726 0.496367)
(0.413611 -0.0904776 0.905947)
(0.783384 -0.163364 -0.599684)
(0.851316 -0.167135 0.497319)
(0.799611 -0.194978 -0.567984)
(0.338492 -0.0680832 -0.938503)
(0.826872 -0.188389 0.529898)
(0.450945 -0.0765509 0.889263)
(0.798449 -0.295059 -0.524805)
(0.818662 -0.286083 0.497946)
(0.853907 -0.259744 0.450973)
(0.435388 -0.150538 0.887567)
(0.890051 -0.0609342 0.45177)
(0.820258 -0.0594598 -0.568895)
(0.845617 -0.0985261 -0.524619)
(0.384074 -0.0222087 -0.923035)
(-0.20419 -0.826224 -0.525033)
(-0.152163 -0.805638 0.572533)
(-0.175684 -0.811162 -0.55781)
(-0.135081 -0.408278 -0.902808)
(-0.13068 -0.831924 0.539282)
(-0.0507107 -0.373689 0.926167)
(-0.187547 -0.808794 -0.557385)
(-0.144054 -0.828795 0.540691)
(-0.217766 -0.823635 -0.523645)
(-0.107737 -0.379112 -0.919058)
(-0.163869 -0.80304 0.572952)
(-0.0374063 -0.41174 0.910533)
(-0.31581 -0.820555 -0.476397)
(-0.262878 -0.796171 0.544983)
(-0.238603 -0.833304 0.498671)
(-0.111501 -0.396229 0.911356)
(-0.0397993 -0.869475 0.492372)
(-0.0823114 -0.844312 -0.529492)
(-0.119373 -0.867705 -0.482532)
(-0.0611141 -0.423971 -0.903611)
(-0.17648 0.974391 -0.139343)
(-0.0238655 -0.409384 0.91205)
(-0.0153471 -0.421714 0.906599)
(-0.00615477 0.142567 0.989766)
(-0.198426 0.915807 -0.349177)
(-0.0442931 -0.746847 0.663519)
(-0.129038 0.988879 0.073949)
(-0.0213059 0.219152 0.975458)
(0.0666751 -0.422222 0.904037)
(-0.0673941 -0.856369 0.511947)
(-0.191239 0.871251 -0.452051)
(-0.14867 0.67747 -0.720369)
(-0.122245 -0.892154 0.434876)
(-0.119344 0.317865 -0.940595)
(-0.137241 -0.942098 0.305967)
(-0.170995 0.835415 -0.522343)
(-0.0957628 -0.873508 0.477299)
(-0.128877 -0.981865 0.139038)
(-0.0885907 -0.110491 -0.989921)
(-0.0704012 -0.727238 -0.682765)
(-0.0948545 -0.951795 0.291701)
(-0.0720569 -0.64916 -0.757231)
(-0.101344 -0.984304 0.144485)
(-0.0811561 -0.522809 -0.848578)
(-0.11239 -0.992398 0.0501385)
(-0.0888408 -0.902821 0.420739)
(-0.0714804 -0.776683 -0.625822)
(0.275317 -0.918317 -0.284418)
(0.298291 -0.914118 0.274609)
(0.380625 -0.875136 -0.298767)
(0.401889 -0.864265 0.302543)
(0.294131 -0.919516 0.260724)
(0.228601 -0.648158 0.726384)
(0.39395 -0.879682 0.266388)
(0.283168 -0.581547 0.762639)
(0.0758525 -0.64138 -0.763464)
(0.151163 -0.945683 -0.287809)
(0.471502 -0.81627 -0.333752)
(0.491829 -0.801059 0.341186)
(0.48497 -0.823663 0.293912)
(0.31984 -0.502438 0.80328)
(0.165227 -0.947086 0.275186)
(0.138367 -0.939193 -0.314279)
(-0.0910383 0.971582 0.218497)
(-0.0481075 0.730898 0.680789)
(-0.0685538 0.630975 0.772769)
(-0.140762 0.956996 0.253664)
(-0.188089 0.952372 -0.240019)
(-0.159815 0.932215 0.324706)
(0.538531 -0.693219 -0.47899)
(0.295033 -0.415896 -0.860224)