/*--------------------------------*- C++ -*----------------------------------*\
  =========                 |
  \\      /  F ield         | OpenFOAM: The Open Source CFD Toolbox
   \\    /   O peration     | Website:  https://openfoam.org
    \\  /    A nd           | Version:  12
     \\/     M anipulation  |
\*---------------------------------------------------------------------------*/
FoamFile
{
    format      ascii;
    class       extendedFeatureEdgeMesh;
    location    "constant/extendedFeatureEdgeMesh";
    object      blade2.extendedFeatureEdgeMesh;
}
// * * * * * * * * * * * * * * * * * * * * * * * * * * * * * * * * * * * * * //

// points

348
(
(1.14441 9.02207 0.489997)
(1.14932 9.06921 0.500592)
(1.16024 9.07095 0.517955)
(1.32058 7.20797 0.55081)
(1.31412 7.16166 0.56393)
(1.30462 7.16125 0.582193)
(1.24894 8.04777 0.556114)
(1.25851 8.04584 0.55552)
(1.25795 8.04203 0.550023)
(1.24809 8.04346 0.550345)
(1.23922 8.04882 0.556142)
(1.23826 8.04507 0.550658)
(1.25807 8.04534 0.54419)
(1.24848 8.04725 0.544176)
(1.23878 8.04832 0.544812)
(1.23041 8.05083 0.556047)
(1.22899 8.04784 0.550899)
(1.26708 8.04464 0.544221)
(1.26762 8.04187 0.549653)
(1.32897 8.10644 0.550445)
(1.33086 8.116 0.549651)
(1.33421 8.11541 0.543862)
(1.33279 8.10555 0.544346)
(1.32791 8.09672 0.550604)
(1.3312 8.09573 0.544835)
(1.33042 8.11551 0.538321)
(1.32851 8.10592 0.538507)
(1.32747 8.09622 0.539274)
(1.32589 8.08791 0.550715)
(1.32844 8.08646 0.545345)
(1.33114 8.12452 0.538252)
(1.33434 8.12507 0.543436)
(1.15217 8.86428 0.496501)
(1.14643 8.95996 0.490727)
(1.15442 8.85865 0.49502)
(1.1491 8.94779 0.490184)
(1.21565 8.06242 0.556774)
(1.22299 8.05596 0.556464)
(1.22069 8.0528 0.551006)
(1.21286 8.05898 0.551043)
(1.20775 8.06819 0.556526)
(1.20514 8.06528 0.55107)
(1.22254 8.05547 0.545134)
(1.21519 8.06191 0.544835)
(1.20731 8.06769 0.545196)
(1.20112 8.07432 0.556167)
(1.19849 8.07231 0.551023)
(1.22999 8.05036 0.545416)
(1.19012 8.12788 0.554923)
(1.18821 8.11829 0.555109)
(1.18442 8.11839 0.549568)
(1.18584 8.12825 0.549084)
(1.19116 8.13758 0.554156)
(1.18743 8.13807 0.548595)
(1.18777 8.1178 0.543779)
(1.18966 8.12736 0.542984)
(1.19072 8.13708 0.542826)
(1.19315 8.14635 0.553346)
(1.19019 8.14734 0.548085)
(1.18707 8.10882 0.544547)
(1.18429 8.10873 0.549993)
(1.31437 8.07318 0.55246)
(1.32079 8.0805 0.551586)
(1.32349 8.07817 0.545898)
(1.31733 8.07036 0.546478)
(1.30859 8.06529 0.552723)
(1.31104 8.06265 0.547058)
(1.32035 8.08001 0.540257)
(1.3139 8.07266 0.540522)
(1.30815 8.0648 0.541393)
(1.30244 8.05867 0.552899)
(1.30402 8.05601 0.54762)
(1.32548 8.08745 0.540084)
(1.30441 8.17412 0.548734)
(1.2994 8.18584 0.548647)
(1.30165 8.18786 0.541981)
(1.30685 8.17687 0.542256)
(1.31144 8.16639 0.548251)
(1.31363 8.16878 0.542343)
(1.2989 8.18528 0.535709)
(1.30392 8.17358 0.536249)
(1.311 8.16589 0.536853)
(1.31792 8.15994 0.547894)
(1.32014 8.16149 0.542406)
(1.29646 8.20066 0.53514)
(1.29881 8.2021 0.541472)
(1.19412 8.09175 0.556338)
(1.19725 8.08248 0.556313)
(1.19377 8.08076 0.55084)
(1.19008 8.09001 0.550582)
(1.19016 8.10067 0.555799)
(1.18653 8.09932 0.550315)
(1.19681 8.08199 0.544984)
(1.19366 8.09123 0.544399)
(1.18972 8.10018 0.544469)
(1.18749 8.10928 0.555178)
(1.20071 8.07386 0.545536)
(1.20384 8.16329 0.553123)
(1.19817 8.15406 0.5532)
(1.19502 8.15587 0.547526)
(1.20034 8.1654 0.546904)
(1.20742 8.17625 0.552647)
(1.20429 8.1777 0.546216)
(1.19772 8.15357 0.541802)
(1.20336 8.16275 0.540638)
(1.20884 8.19264 0.551875)
(1.20644 8.19309 0.545463)
(1.19274 8.14589 0.542715)
(1.28507 8.0517 0.554535)
(1.29431 8.05482 0.553734)
(1.29558 8.05131 0.548153)
(1.28633 8.04763 0.548674)
(1.27613 8.04776 0.55475)
(1.27702 8.0441 0.54919)
(1.29387 8.05433 0.542405)
(1.28461 8.05118 0.542597)
(1.27569 8.04726 0.54342)
(1.26749 8.0451 0.554851)
(1.30203 8.05821 0.542269)
(1.32497 8.14257 0.54903)
(1.32182 8.15181 0.548446)
(1.32486 8.15305 0.54259)
(1.32855 8.14379 0.542848)
(1.32891 8.13362 0.548961)
(1.3321 8.13448 0.543115)
(1.32138 8.15132 0.537116)
(1.32451 8.14205 0.537092)
(1.32847 8.13313 0.537631)
(1.33156 8.12498 0.548882)
(1.3175 8.15948 0.537263)
(1.14566 9.0555 0.493691)
(1.14766 9.00419 0.4897)
(1.15435 9.07234 0.509178)
(1.16857 9.05871 0.52587)
(1.18144 9.02624 0.532051)
(1.201 8.96438 0.535929)
(1.26085 8.74912 0.536573)
(1.2942 8.62419 0.534831)
(1.2284 8.86816 0.537231)
(1.32291 8.51534 0.533024)
(1.30143 8.23862 0.539782)
(1.29874 8.21932 0.540726)
(1.29929 8.23844 0.533531)
(1.29661 8.2187 0.534412)
(1.3068 8.25893 0.53869)
(1.30445 8.25893 0.53253)
(1.2971 8.21926 0.547217)
(1.29697 8.20122 0.548069)
(1.31205 8.27926 0.531446)
(1.31471 8.27919 0.537501)
(1.20819 8.21105 0.53819)
(1.2069 8.23172 0.537422)
(1.20834 8.19208 0.538946)
(1.2068 8.21135 0.544655)
(1.33567 8.31683 0.535048)
(1.32482 8.29853 0.536267)
(1.32222 8.29918 0.542403)
(1.33264 8.31752 0.541112)
(1.33218 8.317 0.529202)
(1.32175 8.29865 0.530318)
(1.34557 8.33417 0.533909)
(1.34215 8.3349 0.539902)
(1.34169 8.33439 0.528158)
(1.34864 8.35089 0.527248)
(1.35282 8.35063 0.532911)
(1.34909 8.35139 0.538837)
(1.35275 8.39448 0.531771)
(1.35573 8.36794 0.53214)
(1.35184 8.36872 0.537985)
(1.34881 8.39525 0.537451)
(1.34847 8.39477 0.526315)
(1.35141 8.36823 0.526563)
(1.34232 8.44027 0.532)
(1.33844 8.44101 0.537344)
(1.33835 8.44057 0.526747)
(1.31954 8.51564 0.528105)
(1.31915 8.51602 0.537778)
(1.27308 8.1885 0.580377)
(1.26361 8.19093 0.580482)
(1.26391 8.19448 0.574788)
(1.27367 8.1925 0.574366)
(1.28271 8.18691 0.579655)
(1.28339 8.19037 0.573945)
(1.26312 8.19093 0.569143)
(1.27256 8.18849 0.56843)
(1.28221 8.1869 0.568317)
(1.29136 8.18441 0.57893)
(1.29249 8.18709 0.573551)
(1.2542 8.19214 0.56988)
(1.25426 8.19515 0.575206)
(1.1899 8.13421 0.584)
(1.18746 8.12474 0.583804)
(1.18367 8.12528 0.578288)
(1.18564 8.13505 0.5782)
(1.19148 8.14386 0.583624)
(1.18777 8.14479 0.578104)
(1.18696 8.12474 0.572465)
(1.18938 8.13421 0.572052)
(1.19099 8.14385 0.572285)
(1.19396 8.15253 0.583163)
(1.19104 8.15389 0.577959)
(1.18577 8.11579 0.57287)
(1.18299 8.11563 0.57832)
(1.32166 7.36608 0.550661)
(1.32188 7.27008 0.548844)
(1.31958 7.37177 0.549112)
(1.3198 7.28234 0.547963)
(1.3055 8.17204 0.578977)
(1.29851 8.17888 0.578973)
(1.3005 8.18168 0.573206)
(1.30797 8.17509 0.572884)
(1.31304 8.16584 0.578347)
(1.31533 8.16837 0.572567)
(1.29802 8.17888 0.567634)
(1.30498 8.17204 0.56703)
(1.31255 8.16584 0.567009)
(1.31928 8.15934 0.577728)
(1.32157 8.16098 0.572299)
(1.2909 8.1844 0.568292)
(1.32732 8.10524 0.578052)
(1.32974 8.11471 0.577639)
(1.33304 8.11416 0.571816)
(1.33107 8.10439 0.571905)
(1.32572 8.09559 0.577819)
(1.32893 8.09466 0.572)
(1.32925 8.1147 0.5663)
(1.3268 8.10524 0.566104)
(1.32523 8.09559 0.566481)
(1.32321 8.08692 0.57758)
(1.32566 8.08555 0.572145)
(1.33047 8.12365 0.566595)
(1.33371 8.12382 0.571784)
(1.20634 8.16666 0.583277)
(1.19949 8.15968 0.583271)
(1.19645 8.16191 0.577722)
(1.20304 8.16939 0.577435)
(1.21252 8.17421 0.582702)
(1.20975 8.17675 0.577141)
(1.199 8.15967 0.571933)
(1.20583 8.16665 0.57133)
(1.21203 8.17421 0.571363)
(1.21901 8.18048 0.582068)
(1.21713 8.183 0.576819)
(1.1935 8.15253 0.572524)
(1.21066 8.06525 0.583395)
(1.21502 8.05328 0.583437)
(1.21212 8.05111 0.577078)
(1.20754 8.06238 0.577272)
(1.20403 8.07334 0.583136)
(1.20123 8.07083 0.577544)
(1.21446 8.05327 0.57049)
(1.21012 8.06524 0.570901)
(1.20353 8.07333 0.571729)
(1.19789 8.08011 0.583015)
(1.19513 8.07846 0.577805)
(1.21603 8.03776 0.57043)
(1.21416 8.03672 0.576994)
(1.32535 8.14157 0.578126)
(1.32272 8.15098 0.577932)
(1.32581 8.15228 0.572118)
(1.32898 8.14284 0.571983)
(1.32878 8.13242 0.577675)
(1.332 8.13334 0.571855)
(1.32222 8.15098 0.566594)
(1.32483 8.14156 0.566178)
(1.32829 8.13241 0.566336)
(1.33094 8.12365 0.577234)
(1.31882 8.15934 0.567089)
(1.31167 8.07061 0.579015)
(1.3178 8.0795 0.578201)
(1.32036 8.07728 0.572377)
(1.31452 8.06805 0.572633)
(1.30739 8.05786 0.579431)
(1.30988 8.05597 0.572838)
(1.31731 8.0795 0.566795)
(1.31112 8.0706 0.566521)
(1.30505 8.04156 0.579534)
(1.30688 8.04071 0.572973)
(1.32274 8.08691 0.566941)
(1.23679 8.18653 0.581951)
(1.22737 8.1839 0.582055)
(1.22582 8.18724 0.576441)
(1.23526 8.19042 0.576031)
(1.24592 8.18997 0.581249)
(1.24475 8.19344 0.575619)
(1.22688 8.1839 0.570717)
(1.23627 8.18652 0.570004)
(1.24542 8.18997 0.569911)
(1.25466 8.19215 0.580519)
(1.21854 8.18048 0.57143)
(1.19187 8.09788 0.583926)
(1.19448 8.08847 0.583511)
(1.1909 8.08716 0.577986)
(1.18772 8.09661 0.578121)
(1.18842 8.10703 0.583768)
(1.18471 8.10611 0.578249)
(1.19399 8.08846 0.572172)
(1.19135 8.09788 0.571978)
(1.18792 8.10703 0.572429)
(1.18623 8.1158 0.583509)
(1.19743 8.08011 0.572376)
(1.31789 7.17485 0.556129)
(1.31825 7.22598 0.549958)
(1.30967 7.15917 0.573035)
(1.29765 7.17426 0.590192)
(1.28706 7.20763 0.595908)
(1.27116 7.27059 0.598526)
(1.22292 7.4887 0.594173)
(1.19612 7.61512 0.589426)
(1.24903 7.36816 0.597643)
(1.17309 7.72524 0.584974)
(1.20949 8.00037 0.577207)
(1.21327 8.01951 0.577038)
(1.21111 8.00017 0.570799)
(1.21488 8.01975 0.570548)
(1.203 7.98036 0.577495)
(1.20481 7.97997 0.57117)
(1.21544 8.01975 0.583362)
(1.21659 8.03777 0.583369)
(1.1961 7.96007 0.571649)
(1.19396 7.96054 0.577893)
(1.30358 8.02259 0.566702)
(1.30372 8.00187 0.566784)
(1.30449 8.04155 0.566594)
(1.3055 8.02248 0.573038)
(1.17094 7.92407 0.578902)
(1.1828 7.94177 0.578383)
(1.18587 7.94123 0.584309)
(1.17443 7.92346 0.584722)
(1.17391 7.92345 0.572803)
(1.18534 7.94123 0.572214)
(1.16008 7.90728 0.579378)
(1.16396 7.9066 0.585098)
(1.16345 7.9066 0.573345)
(1.15559 7.89049 0.573768)
(1.15193 7.89122 0.579737)
(1.15609 7.89049 0.585366)
(1.1496 7.84743 0.580614)
(1.14805 7.87408 0.580005)
(1.15238 7.87333 0.585541)
(1.15396 7.84667 0.585981)
(1.15338 7.84667 0.574844)
(1.15187 7.87332 0.574111)
(1.1576 7.80117 0.582093)
(1.16188 7.80044 0.58713)
(1.1611 7.80044 0.576552)
(1.17601 7.72455 0.579814)
(1.17719 7.72455 0.58943)
)

// edges

298
(
(6 7)
(8 9)
(10 6)
(9 11)
(12 13)
(13 14)
(10 15)
(11 16)
(12 17)
(8 18)
(19 20)
(21 22)
(23 19)
(22 24)
(25 26)
(26 27)
(23 28)
(24 29)
(25 30)
(21 31)
(32 33)
(34 35)
(36 37)
(38 39)
(40 36)
(39 41)
(42 43)
(43 44)
(40 45)
(41 46)
(42 47)
(38 16)
(48 49)
(50 51)
(52 48)
(51 53)
(54 55)
(55 56)
(52 57)
(53 58)
(54 59)
(50 60)
(61 62)
(63 64)
(65 61)
(64 66)
(67 68)
(68 69)
(65 70)
(66 71)
(67 72)
(63 29)
(73 74)
(75 76)
(77 73)
(76 78)
(79 80)
(80 81)
(77 82)
(78 83)
(79 84)
(75 85)
(86 87)
(88 89)
(90 86)
(89 91)
(92 93)
(93 94)
(90 95)
(91 60)
(92 96)
(88 46)
(97 98)
(99 100)
(101 97)
(100 102)
(103 104)
(101 105)
(102 106)
(103 107)
(99 58)
(108 109)
(110 111)
(112 108)
(111 113)
(114 115)
(115 116)
(112 117)
(113 18)
(114 118)
(110 71)
(119 120)
(121 122)
(123 119)
(122 124)
(125 126)
(126 127)
(123 128)
(124 31)
(125 129)
(121 83)
(0 130)
(130 1)
(0 131)
(1 132)
(131 35)
(0 33)
(2 133)
(133 134)
(134 135)
(2 132)
(136 137)
(138 136)
(137 139)
(138 135)
(140 141)
(142 143)
(144 140)
(145 142)
(146 147)
(141 85)
(145 148)
(144 149)
(150 151)
(150 152)
(153 106)
(154 155)
(156 157)
(158 159)
(160 154)
(157 161)
(162 158)
(155 149)
(159 148)
(162 163)
(160 164)
(161 165)
(166 167)
(168 169)
(170 171)
(172 166)
(169 173)
(174 170)
(168 165)
(167 164)
(171 163)
(174 175)
(172 139)
(173 176)
(177 178)
(179 180)
(181 177)
(180 182)
(183 184)
(184 185)
(181 186)
(182 187)
(183 188)
(179 189)
(190 191)
(192 193)
(194 190)
(193 195)
(196 197)
(197 198)
(194 199)
(195 200)
(196 201)
(192 202)
(203 204)
(205 206)
(207 208)
(209 210)
(211 207)
(210 212)
(213 214)
(214 215)
(211 216)
(212 217)
(213 218)
(209 187)
(219 220)
(221 222)
(223 219)
(222 224)
(225 226)
(226 227)
(223 228)
(224 229)
(225 230)
(221 231)
(232 233)
(234 235)
(236 232)
(235 237)
(238 239)
(239 240)
(236 241)
(237 242)
(238 243)
(234 200)
(244 245)
(246 247)
(248 244)
(247 249)
(250 251)
(251 252)
(248 253)
(249 254)
(250 255)
(246 256)
(257 258)
(259 260)
(261 257)
(260 262)
(263 264)
(264 265)
(261 266)
(262 231)
(263 267)
(259 217)
(268 269)
(270 271)
(272 268)
(271 273)
(274 275)
(272 276)
(273 277)
(274 278)
(270 229)
(279 280)
(281 282)
(283 279)
(282 284)
(285 286)
(286 287)
(283 288)
(284 189)
(285 289)
(281 242)
(290 291)
(292 293)
(294 290)
(293 295)
(296 297)
(297 298)
(294 299)
(295 202)
(296 300)
(292 254)
(3 301)
(301 4)
(3 302)
(4 303)
(302 206)
(3 204)
(5 304)
(304 305)
(305 306)
(5 303)
(307 308)
(309 307)
(308 310)
(309 306)
(311 312)
(313 314)
(315 311)
(316 313)
(317 318)
(312 256)
(316 319)
(315 320)
(321 322)
(321 323)
(324 277)
(325 326)
(327 328)
(329 330)
(331 325)
(328 332)
(333 329)
(326 320)
(330 319)
(333 334)
(331 335)
(332 336)
(337 338)
(339 340)
(341 342)
(343 337)
(340 344)
(345 341)
(339 336)
(338 335)
(342 334)
(345 346)
(343 310)
(344 347)
)

// concaveStart mixedStart nonFeatureStart
0 6 6
// internalStart flatStart openStart multipleStart
0 298 298 298
// normals

594
(
(0.12125 0.786961 -0.604972)
(0.0182989 0.37578 -0.926528)
(0.0998719 0.812877 -0.573808)
(0.139657 0.84008 0.524177)
(0.0863096 0.81528 -0.572599)
(0.0337543 0.337939 -0.940562)
(0.109357 0.788924 -0.604682)
(0.155396 0.857052 0.491237)
(0.16904 0.855151 0.490043)
(0.0823575 0.421645 0.903013)
(0.127689 0.841794 0.52448)
(0.108155 0.45161 0.885636)
(0.0930625 0.364461 -0.926557)
(0.193691 0.824503 -0.531675)
(0.220313 0.786789 -0.576564)
(0.26738 0.855678 0.443082)
(0.0333806 0.463162 0.885645)
(0.0685454 0.891924 0.446959)
(0.0326422 0.868414 0.494763)
(-0.00677929 0.849553 -0.52746)
(-0.833825 0.120006 -0.538827)
(-0.45067 0.0148912 -0.892566)
(-0.85717 0.09877 -0.505474)
(-0.793896 0.143467 0.590887)
(-0.859505 0.0852766 -0.503963)
(-0.414089 0.0302104 -0.909735)
(-0.835759 0.108213 -0.538327)
(-0.813507 0.159248 0.559327)
(-0.811737 0.17282 0.557868)
(-0.345836 0.0871464 0.934239)
(-0.79558 0.131615 0.59138)
(-0.377101 0.112941 0.91926)
(-0.439268 0.0896799 -0.893869)
(-0.865076 0.192953 -0.463047)
(-0.831232 0.219228 -0.510874)
(-0.815945 0.270935 0.510714)
(-0.388705 0.0381917 0.92057)
(-0.852082 0.0722393 0.518399)
(-0.824771 0.0364963 0.564288)
(-0.890115 -0.00747905 -0.455675)
(0.986436 0.0682042 0.149302)
(0.687016 0.0847807 0.72168)
(0.522977 0.0772285 0.848841)
(0.013731 0.0549846 0.998393)
(0.507937 0.605997 -0.612183)
(0.218777 0.293043 -0.930732)
(0.501838 0.639925 -0.58194)
(0.531763 0.671355 0.516246)
(0.491368 0.648761 -0.581091)
(0.213514 0.252152 -0.943839)
(0.498712 0.613555 -0.612239)
(0.554552 0.677298 0.483467)
(0.565421 0.66888 0.482595)
(0.266992 0.346971 0.89907)
(0.522338 0.678747 0.516203)
(0.304601 0.359602 0.881989)
(0.277923 0.245891 -0.928599)
(0.588304 0.60415 -0.537495)
(0.593263 0.55714 -0.581063)
(0.651592 0.619055 0.438404)
(0.245589 0.406928 0.879827)
(0.497423 0.749759 0.436385)
(0.453858 0.748518 0.48346)
(0.427172 0.726065 -0.538845)
(0.789837 -0.169074 -0.589551)
(0.380041 -0.093705 -0.920211)
(0.81567 -0.145071 -0.560033)
(0.837856 -0.0943824 0.53767)
(0.818059 -0.131521 -0.559895)
(0.342294 -0.110325 -0.933093)
(0.791765 -0.157295 -0.590226)
(0.855028 -0.112952 0.506131)
(0.853195 -0.126582 0.505999)
(0.417634 -0.00703127 0.908588)
(0.839533 -0.082547 0.537002)
(0.447728 -0.0341251 0.893518)
(0.368825 -0.168264 -0.914142)
(0.827168 -0.235254 -0.510342)
(0.789794 -0.265468 -0.552948)
(0.854061 -0.228408 0.467343)
(0.459151 0.0403962 0.887439)
(0.890012 -0.0299311 0.454953)
(0.866226 0.00974935 0.499558)
(0.852004 -0.035039 -0.522361)
(-0.653447 0.506344 -0.562692)
(-0.368227 0.215217 -0.904484)
(-0.68486 0.500431 -0.529655)
(-0.625795 0.535255 0.567347)
(-0.693618 0.489977 -0.528031)
(-0.328606 0.209805 -0.920869)
(-0.660996 0.497136 -0.562085)
(-0.634375 0.557991 0.53499)
(-0.626046 0.568819 0.533396)
(-0.271455 0.271631 0.923325)
(-0.633172 0.525852 0.567955)
(-0.285424 0.309184 0.90716)
(-0.320982 0.274267 -0.906503)
(-0.645395 0.587072 -0.488684)
(-0.602107 0.591749 -0.536003)
(-0.579938 0.654746 0.484747)
(-0.332833 0.250261 0.909171)
(-0.710568 0.50076 0.4943)
(-0.705524 0.457388 0.541324)
(-0.767228 0.42611 -0.479366)
(-0.81685 -0.352285 -0.456783)
(-0.492983 -0.216831 -0.842587)
(-0.825007 -0.400237 -0.398966)
(-0.756334 -0.343826 0.556546)
(-0.664457 -0.574213 -0.478306)
(-0.366703 -0.27795 -0.887847)
(-0.665778 -0.563251 -0.489375)
(-0.629672 -0.52147 0.575832)
(-0.80969 -0.325066 0.488604)
(-0.378643 -0.120203 0.917704)
(-0.618067 -0.522678 0.587198)
(-0.315019 -0.217344 0.923864)
(-0.361934 -0.315331 -0.877251)
(-0.645972 -0.62536 -0.437773)
(-0.652331 -0.587292 -0.479115)
(-0.629522 -0.558084 0.540597)
(-0.496793 -0.0466356 0.866615)
(-0.9195 -0.132009 0.370262)
(-0.878524 -0.159225 0.45038)
(-0.937212 -0.197283 -0.287598)
(0.752681 0.255994 -0.60658)
(0.351201 0.121157 -0.928428)
(0.76388 0.2893 -0.576882)
(0.787315 0.329303 0.521243)
(0.759173 0.302211 -0.576476)
(0.326443 0.0880915 -0.941103)
(0.748446 0.26719 -0.60699)
(0.810603 0.322232 0.488967)
(0.815833 0.309489 0.4885)
(0.389734 0.190055 0.901103)
(0.782839 0.340412 0.520848)
(0.428905 0.181844 0.884858)
(0.378856 0.0508804 -0.924056)
(0.820164 0.216232 -0.529692)
(0.801707 0.171946 -0.572451)
(0.866372 0.222233 0.447227)
(0.401439 0.252193 0.88048)
(0.7981 0.412328 0.439343)
(0.758931 0.434196 0.48528)
(0.741477 0.402244 -0.537039)
(0.709889 -0.441081 -0.549095)
(0.354363 -0.225472 -0.907518)
(0.719908 -0.437357 -0.538935)
(0.755788 -0.387826 0.527613)
(0.846782 -0.251104 -0.468942)
(0.383292 -0.139379 -0.91305)
(0.791013 -0.284277 -0.541743)
(0.866853 -0.254287 0.428841)
(0.75678 -0.398527 0.518131)
(0.404254 -0.133278 0.904884)
(0.475613 -0.0825128 -0.875776)
(0.929535 -0.0973919 -0.355641)
(0.876382 -0.144743 -0.459351)
(0.948171 -0.11786 0.295095)
(0.413366 -0.161813 0.896072)
(0.761041 -0.437106 0.479328)
(0.758644 -0.395444 0.517768)
(0.738793 -0.45095 -0.500829)
(-0.303853 0.750438 -0.586956)
(-0.196555 0.347316 -0.916917)
(-0.334644 0.761852 -0.554612)
(-0.28419 0.790248 0.542903)
(-0.347472 0.75716 -0.553147)
(-0.164694 0.322425 -0.932158)
(-0.315059 0.746221 -0.586424)
(-0.27972 0.813375 0.510076)
(-0.267077 0.818609 0.508478)
(-0.114726 0.394039 0.911905)
(-0.295244 0.785815 0.543439)
(-0.107797 0.433148 0.894853)
(-0.126094 0.37486 -0.918466)
(-0.257734 0.818172 -0.513973)
(-0.217226 0.799476 -0.560046)
(-0.183378 0.868715 0.460116)
(-0.178332 0.405799 0.896395)
(-0.37363 0.80086 0.468)
(-0.391715 0.761921 0.515787)
(-0.44394 0.739851 -0.505507)
(-0.796647 -0.305077 -0.521806)
(-0.421833 -0.199983 -0.884344)
(-0.805374 -0.335578 -0.488631)
(-0.743392 -0.280231 0.607321)
(-0.800626 -0.348506 -0.487383)
(-0.398237 -0.168217 -0.901726)
(-0.792418 -0.316285 -0.521572)
(-0.769077 -0.275936 0.576523)
(-0.774358 -0.263274 0.575376)
(-0.317908 -0.109956 0.941724)
(-0.738925 -0.291347 0.607541)
(-0.358264 -0.103014 0.92792)
(-0.449287 -0.129474 -0.883956)
(-0.858086 -0.258526 -0.44368)
(-0.843167 -0.21821 -0.49138)
(-0.828233 -0.179717 0.530785)
(-0.330996 -0.173587 0.927529)
(-0.760202 -0.370012 0.534026)
(-0.717449 -0.387976 0.578569)
(-0.779582 -0.444807 -0.440906)
(0.9827 -0.0165181 -0.184468)
(-0.358076 -0.0892536 0.929417)
(0.918937 -0.0477779 -0.3915)
(-0.698766 -0.164204 0.69625)
(-0.371841 -0.0828538 0.924592)
(0.1867 0.0176057 0.982259)
(0.869139 -0.0479774 -0.492235)
(-0.809906 -0.204795 0.549647)
(-0.385783 -0.00199695 0.922587)
(0.263973 0.0150424 0.964413)
(0.999059 0.0327712 0.0284224)
(0.659026 -0.0374696 -0.751186)
(-0.83984 -0.264759 0.47389)
(0.28973 -0.0668882 -0.954768)
(-0.892516 -0.287709 0.347331)
(-0.139743 -0.105902 -0.984508)
(-0.940717 -0.286012 0.18234)
(-0.823841 -0.235619 0.515529)
(0.827369 -0.0338348 -0.560639)
(-0.73668 -0.187597 -0.6497)
(-0.909584 -0.24747 0.33379)
(-0.662777 -0.176628 -0.727688)
(-0.947317 -0.25924 0.188108)
(-0.782609 -0.196624 -0.590645)
(-0.856428 -0.233546 0.460422)
(-0.957825 -0.271501 0.0941206)
(-0.541044 -0.16524 -0.824601)
(-0.962759 0.122854 -0.240838)
(-0.936845 0.146547 0.317562)
(-0.942101 0.141584 0.303973)
(-0.642746 0.121121 0.756444)
(-0.937903 0.233789 -0.256283)
(-0.903189 0.256889 0.343886)
(-0.918737 0.246547 0.308443)
(-0.584248 0.185776 0.790027)
(-0.679379 -0.029413 -0.733198)
(-0.969811 -0.00405722 -0.243823)
(-0.962568 -0.015626 -0.270588)
(-0.947773 0.00996446 0.318789)
(-0.51036 0.234773 0.827293)
(-0.876999 0.34542 0.334003)
(-0.853605 0.355904 0.380382)
(-0.896157 0.332989 -0.293294)
(0.982454 0.0675565 0.173838)
(0.759355 0.0712456 0.646764)
(0.66837 0.0349615 0.743007)
(0.977734 0.0161623 0.209227)
(0.959622 -0.00661643 0.281215)
(0.958296 -0.0316008 -0.284026)
(-0.803868 0.450872 -0.387957)
(-0.749197 0.475012 0.461593)
(-0.792334 0.418939 -0.443505)
(-0.496929 0.223283 -0.838574)
(-0.780983 0.468915 0.412534)
(-0.379741 0.269617 0.884931)
(-0.790756 0.422332 -0.443104)
(-0.731603 0.451262 0.510999)
(-0.777827 0.39118 -0.491898)
(-0.44993 0.185286 -0.873631)
(-0.762779 0.445401 0.468814)
(-0.340728 0.240913 0.908772)
(-0.842907 0.418808 -0.337798)
(-0.793725 0.441387 0.418543)
(-0.822873 0.433172 0.367751)
(-0.437348 0.268794 0.858182)
(-0.319618 0.185904 0.929131)
(-0.769127 0.353404 0.532493)
(-0.742515 0.361124 0.564146)
(-0.804073 0.323794 -0.498622)
(-0.790358 0.298252 -0.535144)
(-0.419316 0.118425 -0.900083)
(-0.834248 -0.101296 -0.542005)
(-0.786639 -0.0798771 0.612224)
(-0.823886 -0.105255 -0.556897)
(-0.396514 -0.0637081 -0.915815)
(-0.78961 -0.0815623 0.608164)
(-0.327329 -0.0273377 0.944515)
(-0.819328 -0.183845 -0.543049)
(-0.788904 -0.182568 0.58677)
(-0.806964 -0.184252 -0.561124)
(-0.386212 -0.0896911 -0.918039)
(-0.779136 -0.177958 0.601064)
(-0.345794 -0.0852905 0.934426)
(-0.404516 0.019236 -0.914328)
(-0.821571 0.102776 -0.560766)
(-0.834105 0.116555 -0.53915)
(-0.776393 0.158001 0.610122)
(-0.792477 0.149887 0.591198)
(-0.317215 0.0879851 0.944263)
(-0.384239 -0.112838 0.916312)
(-0.785637 -0.207382 0.582896)
(-0.811372 -0.217241 0.542662)
(-0.805404 -0.200688 -0.557717)
(-0.782502 -0.197802 -0.590394)
(-0.369617 -0.0896991 -0.924845)
(-0.21282 -0.803334 -0.556204)
(-0.116063 -0.412302 -0.903624)
(-0.190204 -0.829163 -0.525654)
(-0.138498 -0.80845 0.572037)
(-0.176821 -0.832277 -0.525403)
(-0.130653 -0.374252 -0.918077)
(-0.201187 -0.805918 -0.556795)
(-0.158039 -0.825856 0.541281)
(-0.171618 -0.823354 0.540958)
(-0.0277754 -0.378525 0.925174)
(-0.126818 -0.810783 0.571444)
(-0.0564833 -0.407735 0.911352)
(-0.189892 -0.396834 -0.898033)
(-0.280749 -0.833741 -0.475454)
(-0.309037 -0.796519 -0.519667)
(-0.273396 -0.82028 0.50239)
(0.0173449 -0.423375 0.905788)
(-0.0771272 -0.867434 0.491537)
(-0.036166 -0.844028 0.535078)
(-0.0822345 -0.869818 -0.486471)
(0.777935 -0.188724 -0.599333)
(0.372313 -0.0771092 -0.924898)
(0.805109 -0.167447 -0.569)
(0.832355 -0.162999 0.529732)
(0.808265 -0.154051 -0.56831)
(0.333664 -0.0910462 -0.938285)
(0.78052 -0.177043 -0.599537)
(0.848384 -0.181159 0.497419)
(0.845789 -0.194655 0.496739)
(0.418442 -0.0675115 0.905731)
(0.834692 -0.151251 0.52954)
(0.446942 -0.0956092 0.889439)
(0.356925 -0.151137 -0.921826)
(0.811598 -0.260115 -0.523115)
(0.772556 -0.286389 -0.566691)
(0.840868 -0.29471 0.453968)
(0.462516 -0.0216491 0.886347)
(0.887866 -0.0982309 0.449493)
(0.866429 -0.0591292 0.495788)
(0.84763 -0.0612399 -0.527042)
(-0.97252 -0.00666259 0.232724)
(-0.627117 -0.0161946 0.778757)
(-0.452789 -0.0125605 0.891529)
(0.0677471 -0.0126501 0.997622)
(-0.588795 -0.601467 -0.539961)
(-0.311604 -0.318697 -0.895173)
(-0.581926 -0.634504 -0.508692)
(-0.520593 -0.618558 0.588531)
(-0.571897 -0.643832 -0.508345)
(-0.30533 -0.278784 -0.910524)
(-0.580008 -0.609532 -0.540427)
(-0.546429 -0.624561 0.557977)
(-0.556828 -0.615602 0.557653)
(-0.207914 -0.293902 0.932949)
(-0.511611 -0.626453 0.588056)
(-0.247437 -0.305123 0.919606)
(-0.367803 -0.268267 -0.890367)
(-0.662366 -0.592043 -0.459081)
(-0.668515 -0.546717 -0.504171)
(-0.643746 -0.562934 0.518359)
(-0.191409 -0.355673 0.9148)
(-0.497396 -0.701982 0.509724)
(-0.449934 -0.701228 0.553027)
(-0.50854 -0.722773 -0.46796)
(-0.826872 0.188379 -0.529901)
(-0.450951 0.0765467 -0.88926)
(-0.851328 0.167114 -0.497307)
(-0.78339 0.16335 0.59968)
(-0.854398 0.15373 -0.496358)
(-0.41361 0.090483 -0.905947)
(-0.829467 0.176692 -0.529872)
(-0.802155 0.181487 0.568867)
(-0.799627 0.194982 0.567961)
(-0.338488 0.068082 0.938505)
(-0.785736 0.1516 0.599697)
(-0.368296 0.0961677 0.924722)
(-0.435375 0.150563 -0.887569)
(-0.853855 0.259792 -0.451044)
(-0.818666 0.286084 -0.497937)
(-0.798438 0.295055 0.524822)
(-0.384073 0.0221922 0.923036)
(-0.845632 0.0985029 0.524598)
(-0.820276 0.0594449 0.568871)
(-0.890074 0.060919 -0.451728)
(0.576224 -0.565042 -0.590502)
(0.278791 -0.272839 -0.920779)
(0.610602 -0.559526 -0.560442)
(0.642643 -0.545461 0.538036)
(0.620013 -0.549486 -0.560044)
(0.23827 -0.26588 -0.934096)
(0.584302 -0.556217 -0.590943)
(0.647261 -0.569902 0.506226)
(0.638277 -0.580329 0.505788)
(0.333867 -0.247836 0.909456)
(0.650521 -0.536473 0.537605)
(0.344424 -0.286755 0.893948)
(0.22853 -0.329183 -0.916195)
(0.570254 -0.642028 -0.512455)
(0.522954 -0.646236 -0.555787)
(0.583774 -0.665485 0.465122)
(0.394852 -0.230537 0.88935)
(0.722607 -0.518787 0.456836)
(0.723826 -0.473313 0.502046)
(0.700668 -0.487908 -0.520587)
(0.792678 0.286783 -0.537975)
(0.430743 0.153764 -0.889279)
(0.808183 0.336561 -0.483289)
(0.817577 0.323782 0.476164)
(0.650794 0.515822 -0.55713)
(0.304467 0.219928 -0.926785)
(0.650602 0.504367 -0.567742)
(0.702397 0.50889 0.497664)
(0.863949 0.299264 0.40501)
(0.460535 0.136812 0.877035)
(0.691954 0.511197 0.509781)
(0.402849 0.237532 0.883907)
(0.302606 0.257898 -0.917561)
(0.638507 0.569427 -0.517747)
(0.639349 0.529508 -0.557543)
(0.701198 0.543954 0.460907)
(0.569934 0.0546947 0.819868)
(0.953114 0.0956208 0.287107)
(0.920545 0.128373 0.368942)
(0.918609 0.132423 -0.372319)
(-0.813562 -0.238469 -0.53033)
(-0.434179 -0.139758 -0.889919)
(-0.823921 -0.26978 -0.49837)
(-0.756675 -0.262823 0.598638)
(-0.81989 -0.282932 -0.497725)
(-0.408887 -0.108669 -0.906092)
(-0.80997 -0.24989 -0.53057)
(-0.782147 -0.255834 0.568151)
(-0.786712 -0.242866 0.567539)
(-0.321648 -0.130417 0.937835)
(-0.75284 -0.274162 0.598387)
(-0.361583 -0.120669 0.924498)
(-0.457657 -0.0679113 -0.886532)
(-0.872135 -0.191796 -0.450105)
(-0.855062 -0.150426 -0.496226)
(-0.835931 -0.154659 0.526593)
(-0.338318 -0.192563 0.921119)
(-0.778662 -0.348416 0.521816)
(-0.73689 -0.370549 0.565409)
(-0.804167 -0.382078 -0.455337)
(-0.729678 0.456931 -0.508709)
(-0.417454 0.207097 -0.884784)
(-0.738975 0.454201 -0.497612)
(-0.687221 0.451051 0.569457)
(-0.869053 0.278413 -0.408942)
(-0.451188 0.1226 -0.883967)
(-0.817976 0.305363 -0.487513)
(-0.81306 0.31997 0.486366)
(-0.688453 0.461428 0.559568)
(-0.318889 0.193128 0.927907)
(-0.54289 0.0725716 -0.836662)
(-0.949874 0.134391 -0.282273)
(-0.903264 0.174349 -0.392066)
(-0.912413 0.182857 0.36615)
(-0.3272 0.221721 0.918575)
(-0.69397 0.498513 0.519509)
(-0.690518 0.458414 0.559501)
(-0.753833 0.470391 -0.458768)
(0.213571 -0.79004 -0.574651)
(0.100011 -0.395526 -0.912994)
(0.246284 -0.801785 -0.544505)
(0.287246 -0.781726 0.553529)
(0.259423 -0.79773 -0.54436)
(0.0683094 -0.369558 -0.926693)
(0.22504 -0.786421 -0.575238)
(0.278913 -0.805886 0.52226)
(0.265863 -0.81044 0.522019)
(0.170547 -0.361703 0.916561)
(0.298625 -0.777865 0.552946)
(0.160195 -0.400986 0.901969)
(0.0283774 -0.41913 -0.907483)
(0.170395 -0.851969 -0.495091)
(0.127079 -0.832927 -0.538594)
(0.175921 -0.857822 0.482901)
(0.231888 -0.377615 0.896457)
(0.369375 -0.800426 0.472102)
(0.393473 -0.760559 0.516459)
(0.360377 -0.78387 -0.505644)
(0.764612 0.238109 -0.598893)
(0.35553 0.139191 -0.924242)
(0.777708 0.26946 -0.567945)
(0.805627 0.263184 0.530754)
(0.77373 0.2826 -0.566991)
(0.32894 0.108097 -0.938143)
(0.761008 0.249543 -0.598828)
(0.828377 0.256163 0.498169)
(0.832882 0.24319 0.497157)
(0.401597 0.130984 0.906401)
(0.801786 0.274518 0.530829)
(0.440234 0.121234 0.889661)
(0.379215 0.0673528 -0.922854)
(0.829901 0.191504 -0.524014)
(0.808904 0.150108 -0.568455)
(0.87836 0.154971 0.452181)
(0.416748 0.19314 0.888267)
(0.820866 0.348738 0.452285)
(0.783063 0.370875 0.499264)
(0.761725 0.381763 -0.523481)
(-0.992554 0.0637957 -0.103763)
(0.439443 0.107581 0.891805)
(-0.944951 0.0828142 -0.316558)
(0.762671 0.153613 0.62828)
(0.452415 0.100217 0.886159)
(-0.103769 0.0336426 0.994032)
(-0.903888 0.0760509 -0.420954)
(0.863017 0.181803 0.471327)
(0.461867 0.0186978 0.886752)
(-0.182036 0.0397818 0.982487)
(-0.993435 0.0243729 0.111774)
(-0.717225 0.0430716 -0.695509)
(0.88955 0.236812 0.390667)
(-0.36541 0.0433108 -0.929839)
(0.932473 0.251502 0.259307)
(0.0614693 0.0569714 -0.996482)
(0.966409 0.24026 0.091259)
(0.875607 0.21035 0.434815)
(-0.868848 0.056769 -0.491814)
(0.687988 0.118969 -0.715904)
(0.946194 0.209841 0.24634)
(0.607298 0.108928 -0.786971)
(0.972074 0.213426 0.0975761)
(0.739161 0.12786 -0.661281)
(0.90328 0.204179 0.377354)
(0.975232 0.221168 0.00269354)
(0.477422 0.100361 -0.872924)
(0.93125 -0.1864 -0.313094)
(0.951371 -0.185414 0.245998)
(0.955699 -0.181334 0.231855)
(0.697089 -0.125395 0.705934)
(0.899412 -0.296315 -0.321335)
(0.914335 -0.292514 0.280048)
(0.927356 -0.284535 0.243001)
(0.638342 -0.185212 0.747139)
(0.615656 -0.0390899 -0.787045)
(0.944642 -0.0603238 -0.322509)
(0.935776 -0.0494837 -0.349105)
(0.969476 -0.0497259 0.240089)
(0.56541 -0.228422 0.79255)
(0.882811 -0.37978 0.276425)
(0.862883 -0.387013 0.325044)
(0.849562 -0.394499 -0.350164)
(-0.96646 -0.00522265 0.256766)
(-0.70472 -0.00175663 0.709483)
(-0.604163 0.0333446 0.796163)
(-0.95608 0.0472531 0.289272)
(-0.930793 0.0719472 0.358397)
(-0.975883 0.0733394 -0.205606)
(0.743555 -0.510845 -0.431467)
(0.759603 -0.496602 0.419987)
(0.729055 -0.480644 -0.487298)
(0.412001 -0.285338 -0.865354)
(0.787419 -0.494335 0.368245)
(0.438476 -0.253478 0.862257)
(0.727351 -0.483903 -0.486619)
(0.747545 -0.469871 0.469464)
(0.712007 -0.454153 -0.535529)
(0.364259 -0.246257 -0.89815)
(0.775277 -0.467524 0.424697)
(0.403172 -0.221678 0.887869)
(0.788311 -0.478949 -0.38623)
(0.802046 -0.467336 0.371914)
(0.827206 -0.462878 0.31855)