/*--------------------------------*- C++ -*----------------------------------*\
  =========                 |
  \\      /  F ield         | OpenFOAM: The Open Source CFD Toolbox
   \\    /   O peration     | Website:  https://openfoam.org
    \\  /    A nd           | Version:  10
     \\/     M anipulation  |
\*---------------------------------------------------------------------------*/
FoamFile
{
    format      ascii;
    class       polyBoundaryMesh;
    location    "constant/polyMesh";
    object      boundary;
}
// * * * * * * * * * * * * * * * * * * * * * * * * * * * * * * * * * * * * * //

8
(
    inlet
    {
        type            patch;
        nFaces          3000;
        startFace       2198334;
    }
    outlet
    {
        type            patch;
        nFaces          3000;
        startFace       2201334;
    }
    walls
    {
        type            wall;
        inGroups        List<word> 1(wall);
        nFaces          44000;
        startFace       2204334;
    }
    drone
    {
        type            wall;
        inGroups        List<word> 1(wall);
        nFaces          69942;
        startFace       2248334;
    }
    blade1
    {
        type            wall;
        inGroups        List<word> 1(wall);
        nFaces          6625;
        startFace       2318276;
    }
    blade2
    {
        type            wall;
        inGroups        List<word> 1(wall);
        nFaces          6597;
        startFace       2324901;
    }
    blade3
    {
        type            wall;
        inGroups        List<word> 1(wall);
        nFaces          6575;
        startFace       2331498;
    }
    blade4
    {
        type            wall;
        inGroups        List<word> 1(wall);
        nFaces          6604;
        startFace       2338073;
    }
)

// ************************************************************************* //
