FoamFile
{
    version     2.0;
    format      ascii;
    class       dictionary;
    object      blockMeshDict;
}

convertToMeters 1.0;

vertices
(
    (-8.7685 -29.5283 -5.7514)   // 0: нижня ліва задня (bottom left back)
    ( 9.2315 -29.5283 -5.7514)   // 1: нижня права задня (bottom right back)
    ( 9.2315  30.4717 -5.7514)   // 2: нижня права передня (bottom right front)
    (-8.7685  30.4717 -5.7514)   // 3: нижня ліва передня (bottom left front)

    (-8.7685 -29.5283  9.8486)   // 4: верхня ліва задня (top left back)
    ( 9.2315 -29.5283  9.8486)   // 5: верхня права задня (top right back)
    ( 9.2315  30.4717  9.8486)   // 6: верхня права передня (top right front)
    (-8.7685  30.4717  9.8486)   // 7: верхня ліва передня (top left front)
);


blocks
(
    hex (0 1 2 3 4 5 6 7) (30 100 25) simpleGrading (1 1 1)
);

edges
(
);

boundary
(
    inlet
    {
        type patch;
        faces
        (
            (0 4 7 3)
        );
    }
    outlet
    {
        type patch;
        faces
        (
            (1 2 6 5)
        );
    }
    walls
    {
        type wall;
        faces
        (
            (0 1 5 4)
            (3 7 6 2)
            (0 3 2 1)
            (4 5 6 7)
        );
    }
);

mergePatchPairs
(
);