FoamFile
{
    version     2.0;
    format      ascii;
    class       dictionary;
    object      checkMeshDict;
}

// Записувати набори при помилці
writeControl writeOnError;
writeSets     true;

meshQualityControls
{
    // Пороги на ск’ювенес
    maxInternalSkewness   3;    // всі внутрішні грані зі skewness>3 візьмуться до badFaces
    maxBoundarySkewness   20;   // граничні грані зі skewness>20 – до badFaces
}
