FoamFile
{
    version     2.0;
    format      ascii;
    class       dictionary;
    object      controlDict;
}

application     foamRun;

solver incompressibleFluid;

startFrom       latestTime;
startTime       0;

stopAt          endTime;
endTime         1;
deltaT          0.001;

writeControl    timeStep;
writeInterval   1;

purgeWrite      0;

wallShearStress1
{
    // Обов’язкові параметри (непіддавати змін)
    type            wallShearStress;
    libs            (fieldFunctionObjects);

    // Опціональні параметри, які можна змінювати під час роботи:
    patches         (drone blade1 blade2 blade3 blade4);  // перелік патчів, для яких потрібно розраховувати wall shear stress

    // Інші опції (успадковані):
    writePrecision  8;         // точність запису значень
    writeToFile     true;      // чи записувати результати у файл
    useUserTime     true;      // чи використовувати часу, заданий користувачем
    enabled         true;
    log             true;
    timeStart       0;
    timeEnd         1;
    executeControl  timeStep;
    executeInterval 1;         // виконувати кожен крок
    writeControl    timeStep;
    writeInterval   1;;         // записувати результати кожен крок
}

