/*--------------------------------*- C++ -*----------------------------------*\
| =========                 |                                                 |
| \\      /  Field         | OpenFOAM: The Open Source CFD Toolbox            |
|  \\    /   Operation     | Website:  https://openfoam.org                   |
|   \\  /    A nd           | Version:  12                                      |
|    \\/     Manipulation  |                                                 |
\*---------------------------------------------------------------------------*/
FoamFile
{
    format      ascii;
    class       dictionary;
    object      fvSolution;         // Назва файлу, що містить розв’язувачі й налаштування SIMPLE
}

// ************************************************************************* //

// system/fvSolution

solvers
{
    p
    {
        solver          GAMG;
        smoother        GaussSeidel;
        tolerance       1e-6;
        relTol          0.1;
    }

    U
    {
        solver          smoothSolver;
        smoother        symGaussSeidel;
        tolerance       1e-6;
        relTol          0.1;
    }

    k
    {
        solver          smoothSolver;
        smoother        symGaussSeidel;
        tolerance       1e-6;
        relTol          0.1;
    }

    epsilon
    {
        solver          smoothSolver;
        smoother        symGaussSeidel;
        tolerance       1e-6;
        relTol          0.1;
    }
}

SIMPLE
{
    residualControl
    {
        p         1e-6;
        U         1e-6;
        k         1e-6;
        epsilon   1e-6;
    }
    nNonOrthogonalCorrectors 0;
    pRefCell        0;
    pRefValue       0;
}

relaxationFactors
{
    fields
    {
        p   0.3;    // підсилення для тиску
    }
    equations
    {
        U       0.7;
        k       0.7;
        epsilon 0.7;
    }
}
