FoamFile
{
    version     2.0;
    format      ascii;
    class       dictionary;
    object      snappyHexMeshDict;
}

castellatedMesh true;
snap            true;
addLayers       false; // Призматичні шари вимкнені

geometry
{
    walls.stl
    {
        type triSurfaceMesh;
        file "walls.stl";      // <-- Вкажіть тут файл
        name walls;
    }

    inlet.stl
    {
        type triSurfaceMesh;
        file "inlet.stl";
        name inlet;
    }

    outlet.stl
    {
        type triSurfaceMesh;
        file "outlet.stl";
        name outlet;
    }

    drone.stl
    {
        type triSurfaceMesh;
        file "drone.stl";
        name drone;
    }

    blade1.stl
    {
        type triSurfaceMesh;
        file "blade1.stl";
        name blade1;
    }
    blade2.stl
    {
        type triSurfaceMesh;
        file "blade2.stl";
        name blade2;
    }
    blade3.stl
    {
        type triSurfaceMesh;
        file "blade3.stl";
        name blade3;
    }
    blade4.stl
    {
        type triSurfaceMesh;
        file "blade4.stl";
        name blade4;
    }
}



castellatedMeshControls
{
    maxLocalCells 300000;
    maxGlobalCells 6000000;
    minRefinementCells 10;
    nCellsBetweenLevels 3;

    features ();

    refinementSurfaces
	{
    walls
    {
        level (1 1);
    }
    inlet
    {
        level (1 1);
    }
    outlet
    {
        level (1 1);
    }
    drone
    {
        level (4 5);
    }
    blade1
    {
        level (4 5);
    }
    blade2
    {
        level (4 5);
    }
    blade3
    {
        level (4 5);
    }
    blade4
    {
        level (4 5);
    }
}



    resolveFeatureAngle 30;

    locationInMesh (1 -20 -2); // Точка всередині домену
    allowFreeStandingZoneFaces true;
}

snapControls
{
    nSmoothPatch 3;
    tolerance 1;
    nSolveIter 30;
    nRelaxIter 5;
}

addLayersControls
{
    relativeSizes true;
    layers {};
    expansionRatio 1.2;
    finalLayerThickness 0.3;
}

meshQualityControls
{
    maxNonOrtho 65;
    maxBoundarySkewness 20;
    maxInternalSkewness 4;
    maxConcave 80;
    minVol 1e-13;
    minTetQuality 1e-12;
    minFaceWeight 0.02;
    minVolRatio 0.01;
    minTwist 0.02;
    minDeterminant 0.001;
    errorReduction 0.75;
    nSmoothScale 4;
}

mergeTolerance 1e-6;