/*--------------------------------*- C++ -*----------------------------------*\
| nut: турбулентна кінематична в’язкість                             |
\*---------------------------------------------------------------------------*/
FoamFile
{
    format      ascii;
    class       volScalarField;
    object      nut;
}

dimensions      [0 2 -1 0 0 0 0];    // m²/s

internalField   uniform 0;           // start з нуля

boundaryField
{
    inlet
    {
        type            calculated;   // обчислюється з κ, ω
        value           uniform 0;
    }
    outlet
    {
        type            calculated;
        value           uniform 0;
    }
    // Wall‑function для nut
    walls
    {
        type            nutUWallFunction;
        value           uniform 0;
    }
    drone
    {
        type            nutUWallFunction;
        value           uniform 0;
    }
    blade1
    {
        type            nutUWallFunction;
        value           uniform 0;
    }
    blade2
    {
        type            nutUWallFunction;
        value           uniform 0;
    }
    blade3
    {
        type            nutUWallFunction;
        value           uniform 0;
    }
    blade4
    {
        type            nutUWallFunction;
        value           uniform 0;
    }

    #includeEtc "caseDicts/setConstraintTypes"
}
